<?xml version="1.0" encoding="UTF-8"?>

<!-- generated on Sat Jan 18 12:42:46 2014 by SUMO netconvert Version 0.19.0
<?xml version="1.0" encoding="UTF-8"?>

<configuration xmlns:xsi="http://www.w3.org/2001/XMLSchema-instance" xsi:noNamespaceSchemaLocation="http://sumo-sim.org/xsd/netconvertConfiguration.xsd">

    <input>
        <connection-files value="malaga.con.xml"/>
        <type-files value="malaga.typ.xml"/>
        <osm-files value="malaga.osm"/>
    </input>

    <output>
        <output-file value="malaga.net.xml"/>
    </output>

    <projection>
        <proj.utm value="true"/>
    </projection>

    <edge_removal>
        <remove-edges.isolated value="true"/>
    </edge_removal>

    <processing>
        <no-turnarounds value="true"/>
        <geometry.remove value="true"/>
        <junctions.join value="true"/>
        <junctions.join-dist value="5"/>
        <junctions.join-exclude value="303278502,419630409,419678507,891445901,891445947,303010204,10016,418977424,418977426,419666741"/>
    </processing>

</configuration>
-->

<net version="0.13" xmlns:xsi="http://www.w3.org/2001/XMLSchema-instance" xsi:noNamespaceSchemaLocation="http://sumo-sim.org/xsd/net_file.xsd">

    <location netOffset="-372526.43,-4063644.79" convBoundary="0.00,0.00,2138.67,1649.26" origBoundary="-4.427231,36.709938,-4.403495,36.724867" projParameter="+proj=utm +zone=30 +ellps=WGS84 +datum=WGS84 +units=m +no_defs"/>

    <edge id=":-40_0" function="internal">
        <lane id=":-40_0_0" index="0" speed="13.89" length="5.05" shape="1533.86,935.66 1529.17,936.99"/>
        <lane id=":-40_0_1" index="1" speed="13.89" length="5.05" shape="1531.88,933.02 1526.91,934.58"/>
    </edge>
    <edge id=":-40_2" function="internal">
        <lane id=":-40_2_0" index="0" speed="11.11" length="27.37" shape="1531.88,933.02 1524.05,938.09 1520.32,938.49 1520.68,934.21 1525.13,925.26"/>
    </edge>
    <edge id=":-40_3" function="internal">
        <lane id=":-40_3_0" index="0" speed="11.11" length="5.26" shape="1522.39,929.75 1525.13,925.26"/>
    </edge>
    <edge id=":-40_4" function="internal">
        <lane id=":-40_4_0" index="0" speed="13.89" length="5.53" shape="1524.65,932.17 1527.93,927.74"/>
        <lane id=":-40_4_1" index="1" speed="13.89" length="5.53" shape="1524.65,932.17 1529.90,930.38"/>
    </edge>
    <edge id=":-46_0" function="internal">
        <lane id=":-46_0_0" index="0" speed="13.89" length="19.33" shape="1324.93,1184.45 1320.61,1180.68 1317.39,1178.40 1314.19,1176.09 1309.93,1172.25"/>
        <lane id=":-46_0_1" index="1" speed="13.89" length="19.33" shape="1327.21,1182.07 1322.91,1178.31 1319.69,1176.04 1316.50,1173.74 1312.26,1169.91"/>
    </edge>
    <edge id=":-46_2" function="internal">
        <lane id=":-46_2_0" index="0" speed="13.89" length="19.11" shape="1329.22,1178.23 1323.15,1177.97 1317.91,1176.89 1313.50,1174.98 1309.93,1172.25"/>
        <lane id=":-46_2_1" index="1" speed="13.89" length="19.11" shape="1330.22,1174.91 1324.36,1174.71 1319.41,1173.81 1315.38,1172.21 1312.26,1169.91"/>
        <lane id=":-46_2_2" index="2" speed="13.89" length="19.11" shape="1331.22,1171.58 1325.56,1171.44 1320.90,1170.73 1317.25,1169.44 1314.59,1167.58"/>
    </edge>
    <edge id=":10016_0" function="internal">
        <lane id=":10016_0_0" index="0" speed="11.11" length="5.17" shape="1566.12,875.37 1567.77,880.94"/>
        <lane id=":10016_0_1" index="1" speed="11.11" length="5.17" shape="1563.79,877.71 1564.70,882.14"/>
    </edge>
    <edge id=":10016_2" function="internal">
        <lane id=":10016_2_0" index="0" speed="9.72" length="6.90" shape="1563.79,877.71 1570.68,877.99"/>
    </edge>
    <edge id=":1001814_0" function="internal">
        <lane id=":1001814_0_0" index="0" speed="13.89" length="0.10" shape="1130.66,1071.89 1130.66,1071.89"/>
        <lane id=":1001814_0_1" index="1" speed="13.89" length="0.10" shape="1129.64,1075.03 1129.64,1075.03"/>
    </edge>
    <edge id=":1001816_0" function="internal">
        <lane id=":1001816_0_0" index="0" speed="13.89" length="0.10" shape="1126.41,1082.99 1126.41,1082.99"/>
        <lane id=":1001816_0_1" index="1" speed="13.89" length="0.10" shape="1127.44,1079.86 1127.44,1079.86"/>
    </edge>
    <edge id=":1001818_0" function="internal">
        <lane id=":1001818_0_0" index="0" speed="13.89" length="0.10" shape="1027.27,1038.50 1027.27,1038.50"/>
        <lane id=":1001818_0_1" index="1" speed="13.89" length="0.10" shape="1026.25,1041.64 1026.25,1041.64"/>
    </edge>
    <edge id=":1001820_0" function="internal">
        <lane id=":1001820_0_0" index="0" speed="13.89" length="0.10" shape="1023.66,1049.38 1023.66,1049.38"/>
        <lane id=":1001820_0_1" index="1" speed="13.89" length="0.10" shape="1024.69,1046.24 1024.69,1046.24"/>
    </edge>
    <edge id=":1001822_0" function="internal">
        <lane id=":1001822_0_0" index="0" speed="13.89" length="0.10" shape="866.33,986.53 866.33,986.53"/>
        <lane id=":1001822_0_1" index="1" speed="13.89" length="0.10" shape="865.31,989.66 865.32,989.67"/>
    </edge>
    <edge id=":1001824_0" function="internal">
        <lane id=":1001824_0_0" index="0" speed="13.89" length="0.10" shape="862.97,996.81 862.99,996.82"/>
        <lane id=":1001824_0_1" index="1" speed="13.89" length="0.10" shape="864.00,993.68 864.00,993.68"/>
    </edge>
    <edge id=":10027131_0" function="internal">
        <lane id=":10027131_0_0" index="0" speed="11.11" length="0.45" shape="185.52,755.92 186.19,755.91"/>
        <lane id=":10027131_0_1" index="1" speed="11.11" length="0.45" shape="185.80,759.21 186.02,759.20"/>
    </edge>
    <edge id=":10056348_0" function="internal">
        <lane id=":10056348_0_0" index="0" speed="9.72" length="6.55" shape="678.67,958.43 681.64,964.27"/>
    </edge>
    <edge id=":10056348_1" function="internal">
        <lane id=":10056348_1_0" index="0" speed="11.11" length="6.49" shape="674.39,964.84 675.37,958.43"/>
    </edge>
    <edge id=":10074_0" function="internal">
        <lane id=":10074_0_0" index="0" speed="13.89" length="11.35" shape="334.22,822.35 331.04,821.28 328.85,820.56 326.67,819.85 323.46,818.84"/>
        <lane id=":10074_0_1" index="1" speed="13.89" length="11.35" shape="335.27,819.22 332.07,818.15 329.88,817.42 327.68,816.71 324.46,815.69"/>
    </edge>
    <edge id=":10074_2" function="internal">
        <lane id=":10074_2_0" index="0" speed="13.89" length="5.18" shape="335.72,808.91 335.25,810.28 335.37,811.42 336.08,812.31 337.38,812.97"/>
    </edge>
    <edge id=":10074_3" function="internal">
        <lane id=":10074_3_0" index="0" speed="13.89" length="17.38" shape="332.78,807.41 330.92,812.21 330.40,815.79 329.93,819.39 328.21,824.26"/>
        <lane id=":10074_3_1" index="1" speed="13.89" length="17.38" shape="332.78,807.41 330.47,811.96 328.91,815.09 327.39,818.24 325.22,822.86"/>
    </edge>
    <edge id=":10074_5" function="internal">
        <lane id=":10074_5_0" index="0" speed="13.89" length="3.90" shape="332.78,807.41 330.84,810.80"/>
    </edge>
    <edge id=":10074_8" function="internal">
        <lane id=":10074_8_0" index="0" speed="13.89" length="8.53" shape="330.84,810.80 330.46,811.45 328.30,814.18 326.30,815.60 324.46,815.69"/>
    </edge>
    <edge id=":10074_6" function="internal">
        <lane id=":10074_6_0" index="0" speed="13.89" length="11.47" shape="326.44,809.40 329.70,810.43 331.92,811.15 334.14,811.88 337.38,812.97"/>
        <lane id=":10074_6_1" index="1" speed="13.89" length="11.47" shape="325.45,812.55 328.69,813.57 330.90,814.28 333.11,815.01 336.32,816.09"/>
    </edge>
    <edge id=":1628306455_0" function="internal">
        <lane id=":1628306455_0_0" index="0" speed="11.11" length="4.93" shape="162.69,648.59 161.36,648.40 160.27,648.66 159.41,649.38 158.78,650.56"/>
    </edge>
    <edge id=":1628306455_1" function="internal">
        <lane id=":1628306455_1_0" index="0" speed="8.33" length="6.81" shape="158.73,641.31 159.05,642.57 159.97,643.68 161.50,644.63 163.63,645.43"/>
    </edge>
    <edge id=":1628306455_2" function="internal">
        <lane id=":1628306455_2_0" index="0" speed="11.11" length="8.67" shape="158.73,641.31 155.68,649.43"/>
    </edge>
    <edge id=":1628306455_3" function="internal">
        <lane id=":1628306455_3_0" index="0" speed="9.72" length="9.27" shape="154.49,643.89 163.63,645.43"/>
    </edge>
    <edge id=":1628339370_0" function="internal">
        <lane id=":1628339370_0_0" index="0" speed="12.50" length="12.61" shape="523.05,857.43 525.86,859.63 527.68,861.37 529.64,862.80 532.89,864.05"/>
        <lane id=":1628339370_0_1" index="1" speed="12.50" length="12.61" shape="521.03,860.05 524.15,862.46 526.19,864.34 528.38,865.86 531.99,867.22"/>
    </edge>
    <edge id=":1628339370_2" function="internal">
        <lane id=":1628339370_2_0" index="0" speed="13.89" length="12.81" shape="519.80,863.96 523.70,863.38 526.42,863.03 529.10,863.16 532.89,864.05"/>
        <lane id=":1628339370_2_1" index="1" speed="13.89" length="12.81" shape="519.78,867.28 523.42,866.72 525.95,866.35 528.46,866.42 531.99,867.22"/>
    </edge>
    <edge id=":1628378034_0" function="internal">
        <lane id=":1628378034_0_0" index="0" speed="13.89" length="5.50" shape="495.43,646.78 492.82,651.12"/>
        <lane id=":1628378034_0_1" index="1" speed="13.89" length="5.50" shape="492.94,644.61 489.85,649.68"/>
    </edge>
    <edge id=":1628378034_2" function="internal">
        <lane id=":1628378034_2_0" index="0" speed="11.11" length="5.19" shape="488.11,645.66 489.42,646.29 490.15,647.16 490.29,648.30 489.85,649.68"/>
    </edge>
    <edge id=":1628918957_0" function="internal">
        <lane id=":1628918957_0_0" index="0" speed="12.50" length="23.29" shape="198.45,1036.91 198.14,1043.27 197.23,1048.24 196.53,1053.19 196.81,1059.49"/>
        <lane id=":1628918957_0_1" index="1" speed="12.50" length="23.29" shape="195.14,1036.21 194.83,1042.75 193.94,1048.11 193.25,1053.47 193.54,1059.95"/>
    </edge>
    <edge id=":1628918957_2" function="internal">
        <lane id=":1628918957_2_0" index="0" speed="13.89" length="23.65" shape="191.68,1036.27 193.23,1042.62 194.56,1047.82 195.74,1053.05 196.81,1059.49"/>
        <lane id=":1628918957_2_1" index="1" speed="13.89" length="23.65" shape="188.47,1037.00 190.01,1043.31 191.32,1048.42 192.48,1053.55 193.54,1059.95"/>
    </edge>
    <edge id=":1760594390_0" function="internal">
        <lane id=":1760594390_0_0" index="0" speed="8.33" length="6.21" shape="1479.80,1076.61 1473.63,1077.31"/>
    </edge>
    <edge id=":1760594390_1" function="internal">
        <lane id=":1760594390_1_0" index="0" speed="8.33" length="5.08" shape="1476.25,1073.79 1476.30,1075.20 1475.88,1076.25 1474.99,1076.95 1473.63,1077.31"/>
    </edge>
    <edge id=":1777568738_0" function="internal">
        <lane id=":1777568738_0_0" index="0" speed="11.11" length="12.62" shape="1359.19,1158.24 1358.24,1161.70 1358.18,1164.18 1358.52,1166.74 1358.81,1170.40"/>
        <lane id=":1777568738_0_1" index="1" speed="11.11" length="12.62" shape="1359.19,1158.24 1357.69,1161.79 1356.49,1164.21 1355.72,1166.71 1355.51,1170.47"/>
    </edge>
    <edge id=":1777568738_2" function="internal">
        <lane id=":1777568738_2_0" index="0" speed="13.89" length="13.67" shape="1356.08,1157.13 1355.02,1161.02 1354.52,1163.84 1353.59,1166.40 1351.22,1169.48"/>
        <lane id=":1777568738_2_1" index="1" speed="13.89" length="13.67" shape="1352.97,1156.01 1351.87,1159.87 1351.29,1162.65 1350.27,1165.16 1347.86,1168.22"/>
        <lane id=":1777568738_2_2" index="2" speed="13.89" length="13.67" shape="1352.97,1156.01 1351.34,1159.77 1349.65,1162.05 1347.51,1164.05 1344.51,1166.96"/>
    </edge>
    <edge id=":1777568742_0" function="internal">
        <lane id=":1777568742_0_0" index="0" speed="13.89" length="5.09" shape="1258.45,1250.60 1254.41,1253.70"/>
        <lane id=":1777568742_0_1" index="1" speed="13.89" length="5.09" shape="1257.07,1247.60 1253.04,1250.70"/>
    </edge>
    <edge id=":1777568742_2" function="internal">
        <lane id=":1777568742_2_0" index="0" speed="11.11" length="6.27" shape="1250.27,1244.66 1251.88,1238.60"/>
    </edge>
    <edge id=":1777568742_3" function="internal">
        <lane id=":1777568742_3_0" index="0" speed="13.89" length="5.08" shape="1250.27,1244.66 1254.32,1241.60"/>
        <lane id=":1777568742_3_1" index="1" speed="13.89" length="5.08" shape="1251.66,1247.69 1255.70,1244.60"/>
    </edge>
    <edge id=":1777568746_0" function="internal">
        <lane id=":1777568746_0_0" index="0" speed="13.89" length="5.13" shape="1303.45,1229.15 1298.75,1230.70"/>
        <lane id=":1777568746_0_1" index="1" speed="13.89" length="5.13" shape="1302.57,1225.97 1297.53,1227.64"/>
    </edge>
    <edge id=":1777568746_2" function="internal">
        <lane id=":1777568746_2_0" index="0" speed="11.11" length="4.97" shape="1296.97,1217.49 1297.54,1218.72 1298.37,1219.49 1299.46,1219.78 1300.81,1219.61"/>
    </edge>
    <edge id=":1777568746_3" function="internal">
        <lane id=":1777568746_3_0" index="0" speed="11.11" length="3.23" shape="1296.97,1217.49 1297.79,1220.61"/>
    </edge>
    <edge id=":1777568746_6" function="internal">
        <lane id=":1777568746_6_0" index="0" speed="11.11" length="7.39" shape="1297.79,1220.61 1298.05,1221.60 1298.50,1224.66 1298.33,1226.67 1297.53,1227.64"/>
    </edge>
    <edge id=":1777568746_4" function="internal">
        <lane id=":1777568746_4_0" index="0" speed="13.89" length="5.84" shape="1295.09,1221.51 1300.81,1219.61"/>
        <lane id=":1777568746_4_1" index="1" speed="13.89" length="5.84" shape="1296.31,1224.57 1301.69,1222.79"/>
    </edge>
    <edge id=":1777568758_0" function="internal">
        <lane id=":1777568758_0_0" index="0" speed="13.89" length="9.69" shape="1361.01,1140.42 1362.05,1149.09"/>
        <lane id=":1777568758_0_1" index="1" speed="13.89" length="9.69" shape="1361.01,1140.42 1361.16,1143.33 1359.92,1145.45 1358.73,1147.54 1359.02,1150.40"/>
    </edge>
    <edge id=":1777568758_2" function="internal">
        <lane id=":1777568758_2_0" index="0" speed="13.89" length="8.62" shape="1357.51,1140.48 1361.33,1149.40"/>
        <lane id=":1777568758_2_1" index="1" speed="13.89" length="8.62" shape="1354.01,1140.53 1355.45,1143.55 1356.73,1145.55 1357.67,1147.61 1358.04,1150.82"/>
        <lane id=":1777568758_2_2" index="2" speed="13.89" length="8.62" shape="1354.01,1140.53 1354.71,1145.41"/>
    </edge>
    <edge id=":248606024_0" function="internal">
        <lane id=":248606024_0_0" index="0" speed="12.50" length="3.50" shape="1264.29,1133.18 1261.59,1130.96"/>
    </edge>
    <edge id=":248606024_1" function="internal">
        <lane id=":248606024_1_0" index="0" speed="13.89" length="2.67" shape="1264.61,1132.91 1261.59,1130.96"/>
        <lane id=":248606024_1_1" index="1" speed="13.89" length="2.67" shape="1264.66,1129.07 1263.22,1128.09"/>
    </edge>
    <edge id=":248742462_0" function="internal">
        <lane id=":248742462_0_0" index="0" speed="13.89" length="9.70" shape="1302.73,1120.63 1307.10,1121.08 1310.15,1121.48 1311.87,1121.82 1312.26,1122.11"/>
    </edge>
    <edge id=":248742462_1" function="internal">
        <lane id=":248742462_1_0" index="0" speed="13.89" length="9.80" shape="1302.73,1120.63 1311.57,1120.51"/>
        <lane id=":248742462_1_1" index="1" speed="13.89" length="9.80" shape="1302.42,1123.90 1305.60,1124.36 1307.85,1124.72 1310.01,1124.57 1312.94,1123.51"/>
    </edge>
    <edge id=":248742462_3" function="internal">
        <lane id=":248742462_3_0" index="0" speed="13.89" length="10.59" shape="1304.11,1128.17 1306.19,1126.38 1308.52,1126.39 1311.05,1126.57 1313.73,1125.26"/>
    </edge>
    <edge id=":248742462_4" function="internal">
        <lane id=":248742462_4_0" index="0" speed="13.89" length="9.24" shape="1306.42,1130.72 1312.94,1123.51"/>
        <lane id=":248742462_4_1" index="1" speed="13.89" length="9.24" shape="1308.74,1133.28 1314.30,1126.52"/>
    </edge>
    <edge id=":248742470_0" function="internal">
        <lane id=":248742470_0_0" index="0" speed="13.89" length="18.15" shape="1304.07,1165.67 1300.78,1161.55 1298.52,1158.72 1296.07,1156.08 1292.22,1152.49"/>
        <lane id=":248742470_0_1" index="1" speed="13.89" length="18.15" shape="1304.07,1165.67 1301.07,1161.09 1299.63,1157.48 1298.00,1154.05 1294.42,1150.03"/>
    </edge>
    <edge id=":248742470_2" function="internal">
        <lane id=":248742470_2_0" index="0" speed="13.89" length="17.89" shape="1306.62,1163.59 1302.95,1159.43 1300.40,1156.40 1298.83,1153.00 1298.10,1147.71"/>
        <lane id=":248742470_2_1" index="1" speed="13.89" length="17.89" shape="1309.17,1161.50 1305.75,1157.55 1303.41,1154.67 1301.99,1151.43 1301.33,1146.42"/>
        <lane id=":248742470_2_2" index="2" speed="13.89" length="17.89" shape="1309.17,1161.50 1306.25,1157.35 1305.03,1154.02 1304.72,1150.34 1304.57,1145.12"/>
    </edge>
    <edge id=":250325364_0" function="internal">
        <lane id=":250325364_0_0" index="0" speed="13.89" length="5.97" shape="154.21,180.34 160.70,178.79"/>
        <lane id=":250325364_0_1" index="1" speed="13.89" length="5.97" shape="154.21,180.34 159.28,181.77"/>
    </edge>
    <edge id=":250325364_2" function="internal">
        <lane id=":250325364_2_0" index="0" speed="13.89" length="5.30" shape="151.70,182.48 156.88,184.73"/>
        <lane id=":250325364_2_1" index="1" speed="13.89" length="5.30" shape="151.70,182.48 154.25,186.73"/>
    </edge>
    <edge id=":250325368_0" function="internal">
        <lane id=":250325368_0_0" index="0" speed="13.89" length="6.83" shape="251.76,317.04 247.56,311.78"/>
        <lane id=":250325368_0_1" index="1" speed="13.89" length="6.83" shape="254.37,315.02 250.05,309.62"/>
    </edge>
    <edge id=":250325368_2" function="internal">
        <lane id=":250325368_2_0" index="0" speed="11.11" length="6.11" shape="247.52,317.59 248.15,315.76 248.37,314.18 248.17,312.85 247.56,311.78"/>
    </edge>
    <edge id=":294035840_0" function="internal">
        <lane id=":294035840_0_0" index="0" speed="11.11" length="16.57" shape="1384.95,1087.40 1380.22,1088.34 1376.35,1089.99 1373.35,1092.34 1371.21,1095.40"/>
    </edge>
    <edge id=":294035840_1" function="internal">
        <lane id=":294035840_1_0" index="0" speed="11.11" length="19.16" shape="1384.95,1087.40 1381.24,1088.13 1377.22,1089.15 1372.34,1090.00 1366.06,1090.21"/>
    </edge>
    <edge id=":294035840_2" function="internal">
        <lane id=":294035840_2_0" index="0" speed="13.89" length="18.30" shape="1383.63,1083.68 1379.39,1086.65 1376.33,1088.64 1373.82,1091.08 1371.21,1095.40"/>
        <lane id=":294035840_2_1" index="1" speed="13.89" length="18.30" shape="1381.91,1080.84 1377.23,1084.14 1373.88,1086.38 1371.13,1089.12 1368.26,1093.92"/>
    </edge>
    <edge id=":294035840_4" function="internal">
        <lane id=":294035840_4_0" index="0" speed="13.89" length="17.47" shape="1381.91,1080.84 1377.83,1084.01 1374.71,1085.93 1371.26,1086.82 1366.19,1086.91"/>
    </edge>
    <edge id=":294035851_0" function="internal">
        <lane id=":294035851_0_0" index="0" speed="11.11" length="5.53" shape="1614.12,910.35 1613.76,908.74 1613.09,907.58 1612.11,906.86 1610.82,906.60"/>
    </edge>
    <edge id=":294035851_1" function="internal">
        <lane id=":294035851_1_0" index="0" speed="13.89" length="6.79" shape="1617.31,907.38 1610.82,906.60"/>
        <lane id=":294035851_1_1" index="1" speed="13.89" length="6.79" shape="1617.90,904.14 1610.90,903.30"/>
    </edge>
    <edge id=":302890008_0" function="internal">
        <lane id=":302890008_0_0" index="0" speed="12.50" length="17.92" shape="204.40,1232.57 204.32,1238.42 204.69,1242.97 205.25,1246.77 205.71,1250.40"/>
    </edge>
    <edge id=":302890008_1" function="internal">
        <lane id=":302890008_1_0" index="0" speed="13.89" length="17.88" shape="204.40,1232.57 203.96,1237.88 203.46,1241.49 202.88,1245.09 202.25,1250.38"/>
        <lane id=":302890008_1_1" index="1" speed="13.89" length="17.88" shape="201.11,1232.37 200.67,1237.64 200.17,1241.22 199.60,1244.80 198.96,1250.05"/>
    </edge>
    <edge id=":302890020_0" function="internal">
        <lane id=":302890020_0_0" index="0" speed="12.50" length="7.78" shape="602.49,1602.90 602.45,1600.86 602.94,1599.06 603.95,1597.50 605.48,1596.17"/>
    </edge>
    <edge id=":302890020_1" function="internal">
        <lane id=":302890020_1_0" index="0" speed="11.11" length="4.42" shape="601.29,1596.45 602.37,1596.84 603.42,1596.92 604.46,1596.70 605.48,1596.17"/>
    </edge>
    <edge id=":302890839_0" function="internal">
        <lane id=":302890839_0_0" index="0" speed="8.33" length="11.75" shape="866.84,1064.20 869.38,1062.17 871.47,1060.55 873.46,1058.84 875.74,1056.54"/>
    </edge>
    <edge id=":302890839_1" function="internal">
        <lane id=":302890839_1_0" index="0" speed="8.33" length="11.76" shape="869.68,1066.56 871.18,1063.67 872.36,1061.30 873.71,1059.05 875.74,1056.54"/>
    </edge>
    <edge id=":303010204_0" function="internal">
        <lane id=":303010204_0_0" index="0" speed="11.11" length="5.07" shape="1541.18,934.17 1540.25,933.13 1539.22,932.65 1538.09,932.75 1536.86,933.42"/>
    </edge>
    <edge id=":303010204_1" function="internal">
        <lane id=":303010204_1_0" index="0" speed="11.11" length="3.23" shape="1541.18,934.17 1539.50,931.42"/>
    </edge>
    <edge id=":303010204_6" function="internal">
        <lane id=":303010204_6_0" index="0" speed="11.11" length="7.56" shape="1539.50,931.42 1538.94,930.49 1537.62,927.65 1537.23,925.63 1537.76,924.46"/>
    </edge>
    <edge id=":303010204_2" function="internal">
        <lane id=":303010204_2_0" index="0" speed="13.89" length="6.16" shape="1541.78,929.68 1536.86,933.42"/>
        <lane id=":303010204_2_1" index="1" speed="13.89" length="6.16" shape="1539.77,927.07 1534.88,930.78"/>
    </edge>
    <edge id=":303010204_4" function="internal">
        <lane id=":303010204_4_0" index="0" speed="13.89" length="6.08" shape="1530.92,925.50 1535.74,921.84"/>
        <lane id=":303010204_4_1" index="1" speed="13.89" length="6.08" shape="1532.90,928.14 1537.76,924.46"/>
    </edge>
    <edge id=":303010227_0" function="internal">
        <lane id=":303010227_0_0" index="0" speed="8.33" length="6.20" shape="1082.05,1095.01 1087.94,1096.95"/>
    </edge>
    <edge id=":303010227_1" function="internal">
        <lane id=":303010227_1_0" index="0" speed="8.33" length="5.04" shape="1083.97,1098.95 1084.62,1097.72 1085.50,1096.97 1086.61,1096.72 1087.94,1096.95"/>
    </edge>
    <edge id=":303010235_0" function="internal">
        <lane id=":303010235_0_0" index="0" speed="8.33" length="5.42" shape="859.32,1089.71 855.17,1086.21"/>
    </edge>
    <edge id=":303010235_1" function="internal">
        <lane id=":303010235_1_0" index="0" speed="8.33" length="5.00" shape="859.32,1089.71 858.78,1088.65 858.61,1087.50 858.81,1086.28 859.38,1084.98"/>
    </edge>
    <edge id=":303010241_0" function="internal">
        <lane id=":303010241_0_0" index="0" speed="11.11" length="5.01" shape="934.08,1406.85 933.24,1405.76 932.25,1405.17 931.12,1405.10 929.84,1405.53"/>
    </edge>
    <edge id=":303010241_1" function="internal">
        <lane id=":303010241_1_0" index="0" speed="12.50" length="3.22" shape="934.08,1406.85 932.75,1403.92"/>
    </edge>
    <edge id=":303010241_7" function="internal">
        <lane id=":303010241_7_0" index="0" speed="12.50" length="9.75" shape="932.75,1403.92 932.33,1403.00 931.85,1399.79 932.64,1397.23 934.69,1395.31"/>
    </edge>
    <edge id=":303010241_2" function="internal">
        <lane id=":303010241_2_0" index="0" speed="12.50" length="4.98" shape="938.06,1400.98 937.00,1401.84 936.46,1402.83 936.44,1403.95 936.95,1405.22"/>
    </edge>
    <edge id=":303010241_3" function="internal">
        <lane id=":303010241_3_0" index="0" speed="12.50" length="9.29" shape="938.06,1400.98 929.84,1405.53"/>
        <lane id=":303010241_3_1" index="1" speed="12.50" length="9.29" shape="936.38,1398.15 928.34,1402.59"/>
    </edge>
    <edge id=":303010241_5" function="internal">
        <lane id=":303010241_5_0" index="0" speed="12.50" length="8.87" shape="925.33,1396.72 933.00,1392.47"/>
        <lane id=":303010241_5_1" index="1" speed="12.50" length="8.87" shape="926.84,1399.65 934.69,1395.31"/>
    </edge>
    <edge id=":303275184_0" function="internal">
        <lane id=":303275184_0_0" index="0" speed="11.11" length="4.21" shape="405.80,940.00 405.13,941.55 404.13,942.65 402.80,943.33 401.14,943.57"/>
        <lane id=":303275184_0_1" index="1" speed="11.11" length="4.21" shape="402.62,939.10 402.41,939.61 402.08,939.97 401.64,940.19 401.10,940.27"/>
    </edge>
    <edge id=":303275910_0" function="internal">
        <lane id=":303275910_0_0" index="0" speed="13.89" length="9.93" shape="433.70,855.71 424.23,852.62"/>
        <lane id=":303275910_0_1" index="1" speed="13.89" length="9.93" shape="434.69,852.56 425.28,849.49"/>
    </edge>
    <edge id=":303275910_2" function="internal">
        <lane id=":303275910_2_0" index="0" speed="13.89" length="5.42" shape="434.44,842.02 434.25,843.51 434.56,844.72 435.37,845.64 436.68,846.27"/>
    </edge>
    <edge id=":303275910_3" function="internal">
        <lane id=":303275910_3_0" index="0" speed="13.89" length="16.47" shape="431.25,841.17 430.47,846.02 430.67,849.49 430.80,852.93 429.80,857.72"/>
        <lane id=":303275910_3_1" index="1" speed="13.89" length="16.47" shape="431.25,841.17 429.99,845.81 429.10,848.98 428.13,852.13 426.66,856.71"/>
    </edge>
    <edge id=":303275910_5" function="internal">
        <lane id=":303275910_5_0" index="0" speed="13.89" length="3.17" shape="431.25,841.17 430.27,844.18"/>
    </edge>
    <edge id=":303275910_8" function="internal">
        <lane id=":303275910_8_0" index="0" speed="13.89" length="7.97" shape="430.27,844.18 429.92,845.24 428.48,847.98 426.94,849.40 425.28,849.49"/>
    </edge>
    <edge id=":303275910_6" function="internal">
        <lane id=":303275910_6_0" index="0" speed="13.89" length="9.81" shape="427.38,843.24 436.68,846.27"/>
        <lane id=":303275910_6_1" index="1" speed="13.89" length="9.81" shape="426.33,846.36 435.68,849.42"/>
    </edge>
    <edge id=":303278079_0" function="internal">
        <lane id=":303278079_0_0" index="0" speed="9.72" length="5.02" shape="245.58,568.35 244.32,567.76 243.55,566.92 243.25,565.82 243.44,564.47"/>
    </edge>
    <edge id=":303278079_1" function="internal">
        <lane id=":303278079_1_0" index="0" speed="11.11" length="6.20" shape="238.55,569.52 240.27,563.56"/>
        <lane id=":303278079_1_1" index="1" speed="11.11" length="6.20" shape="241.72,570.43 243.44,564.47"/>
    </edge>
    <edge id=":303278502_0" function="internal">
        <lane id=":303278502_0_0" index="0" speed="11.11" length="5.03" shape="189.37,756.08 190.75,755.95 191.74,755.42 192.36,754.47 192.59,753.10"/>
    </edge>
    <edge id=":303278502_1" function="internal">
        <lane id=":303278502_1_0" index="0" speed="11.11" length="9.63" shape="189.37,756.08 198.93,756.40"/>
        <lane id=":303278502_1_1" index="1" speed="11.11" length="9.63" shape="189.19,759.37 198.88,759.70"/>
    </edge>
    <edge id=":303278502_3" function="internal">
        <lane id=":303278502_3_0" index="0" speed="11.11" length="10.27" shape="192.33,762.63 192.93,759.74 194.12,757.91 195.30,756.08 195.89,753.18"/>
    </edge>
    <edge id=":303278502_4" function="internal">
        <lane id=":303278502_4_0" index="0" speed="11.11" length="5.05" shape="195.63,762.73 195.86,761.39 196.49,760.44 197.49,759.87 198.88,759.70"/>
    </edge>
    <edge id=":312051244_0" function="internal">
        <lane id=":312051244_0_0" index="0" speed="13.89" length="8.60" shape="1358.78,1124.23 1357.78,1131.72"/>
        <lane id=":312051244_0_1" index="1" speed="13.89" length="8.60" shape="1355.64,1123.26 1354.68,1132.87"/>
    </edge>
    <edge id=":312051244_2" function="internal">
        <lane id=":312051244_2_0" index="0" speed="13.89" length="8.58" shape="1351.48,1124.19 1357.78,1131.72"/>
        <lane id=":312051244_2_1" index="1" speed="13.89" length="8.58" shape="1349.04,1126.41 1354.68,1132.87"/>
        <lane id=":312051244_2_2" index="2" speed="13.89" length="8.58" shape="1346.60,1128.63 1351.59,1134.02"/>
    </edge>
    <edge id=":331525908_0" function="internal">
        <lane id=":331525908_0_0" index="0" speed="9.72" length="7.06" shape="334.82,794.92 337.13,795.46 338.93,795.42 340.23,794.80 341.04,793.60"/>
    </edge>
    <edge id=":331525908_1" function="internal">
        <lane id=":331525908_1_0" index="0" speed="11.11" length="9.56" shape="334.82,794.92 343.92,797.84"/>
        <lane id=":331525908_1_1" index="1" speed="11.11" length="9.56" shape="333.80,798.06 342.92,800.99"/>
    </edge>
    <edge id=":331525908_3" function="internal">
        <lane id=":331525908_3_0" index="0" speed="12.50" length="6.76" shape="333.80,798.06 336.49,799.18 338.15,800.48 338.80,801.95 338.42,803.60"/>
        <lane id=":331525908_3_1" index="1" speed="12.50" length="6.76" shape="333.80,798.06 335.11,798.70 335.83,799.59 335.95,800.72 335.48,802.11"/>
    </edge>
    <edge id=":331526235_0" function="internal">
        <lane id=":331526235_0_0" index="0" speed="11.11" length="5.09" shape="427.99,873.97 426.62,873.68 425.51,873.91 424.66,874.67 424.08,875.95"/>
    </edge>
    <edge id=":331526235_1" function="internal">
        <lane id=":331526235_1_0" index="0" speed="11.11" length="9.81" shape="427.99,873.97 418.79,870.69"/>
        <lane id=":331526235_1_1" index="1" speed="11.11" length="9.81" shape="429.13,870.87 419.86,867.57"/>
    </edge>
    <edge id=":331526235_3" function="internal">
        <lane id=":331526235_3_0" index="0" speed="12.50" length="10.51" shape="426.93,866.63 425.52,869.32 423.86,870.82 422.23,872.32 420.91,875.04"/>
    </edge>