<?xml version="1.0" encoding="UTF-8"?>
<routes>

   <vTypeDistribution id="typedist01">
      <vType id="transport" accel="0.6" decel="3.5" sigma="0.5" minGap="1.0" length="4.5" maxSpeed="11.11" speedDev="0.05" impatience="0" color="0,1,0" guiShape="transport" probability="0.10" emissionClass="HDV_3_3" />
      <vType id="wagon" accel="0.7" decel="4.0" sigma="0.5" minGap="1.0" length="4.3" maxSpeed="13.89" speedDev="0.05" impatience="0" color="0,1,1" guiShape="passenger/wagon" probability="0.15" emissionClass="P_14_12" />
      <vType id="van" accel="0.8" decel="4.5" sigma="0.5" minGap="1.0" length="4.2" maxSpeed="28.0" speedDev="0.05" impatience="0" color="0,0,1" guiShape="passenger/van" probability="0.25" emissionClass="P_14_8" />
      <vType id="sedan" accel="0.9" decel="5.0" sigma="0.5" minGap="1.0" length="3.8" maxSpeed="50.0" speedDev="0.05" impatience="0" color="1,1,0" guiShape="passenger/sedan" probability="0.50" emissionClass="P_7_7" />
   </vTypeDistribution>

    <routeDistribution id="io0010150.trips.xml">
        <route edges="27594170#0 27594170#1 27594170#2 27594170#3 27594170#4 27594170#5 -75503612#2 -75503612#1 -75503612#0 75503608 61494208 166301879#0 166301879#1 166301879#2 166301879#3 23051252#0 23051252#1 23051252#2 23051252#3 23051252#4 23051252#5 35901826 23162040 10070449#0 10070449#1 10070449#2 100152272 27131168#2 27131168#3 146544715 -35786768"/>
        <route edges="27594170#0 27594170#1 27594170#2 27594170#3 27594170#4 27594170#5 -75503612#2 -75503612#1 -75503612#0 75503608 61494208 166301879#0 166301879#1 166301879#2 166301879#3 23051252#0 23051252#1 23051252#2 23051252#3 23051252#4 23051252#5 35901826 23162040 10070449#0 10070449#1 10070449#2 100152272 27131168#2 61279128 35903052#1 35903052#2 35903052#3 35923003"/>
        <route edges="27594170#0 27594170#1 27594170#2 27594170#3 27594170#4 27594170#5 -75503612#2 -75503612#1 -75503612#0 75503608 61494208 166301879#0 166301879#1 166301879#2 166301879#3 23051252#0 23051252#1 23051252#2 23051252#3 23051252#4 23051252#5 35901826 23162040 10070449#0 10070449#1 10070449#2 10070449#3 10070449#4 72456716 10051758 34474997#0 35901888#0 35901888#1"/>
        <route edges="27594170#0 27594170#1 27594170#2 27594170#3 27594170#4 27594170#5 -75503612#2 -75503612#1 -75503612#0 75503608 61494208 166301879#0 166301879#1 166301879#2 166301879#3 23051252#0 23051252#1 23051252#2 23051252#3 23051252#4 23051252#5 35901826 23162040 10070449#0 35901640 -10028184#2 -10028184#1 -10028184#0 10051733 72456721"/>
        <route edges="27594170#0 27594170#1 27594170#2 27594170#3 27594170#4 27594170#5 -75503612#2 -75503612#1 -75503612#0 75503608 61494208 166301879#0 166301879#1 75503606 -166301881 -10023489 -35772696#1 -35772696#0 34435272"/>
        <route edges="27594170#0 27594170#1 27594170#2 27594170#3 27594170#4 27594170#5 -75503612#2 -75503612#1 -75503612#0 75503608 75503613#0 75503613#1 75503604 23162032#0 23162032#1 23162032#2 23162032#3 23162032#4 23162032#5 35902750#0 35902750#1"/>
        <route edges="27594170#0 27594170#1 35835337#0 35835337#1 -34436912 35769669#0 35769669#1 35835163#3"/>
        <route edges="27594170#0 27594170#1 35835337#0 35835337#1 -34436912 -35777378"/>
        <route edges="27594170#0 27594170#1 35835337#0 35835337#1 35836578#0 35782160#0 35782159#0 35782159#1 35769592#0"/>
        <route edges="27594170#0 27594170#1 35835337#0 35835337#1 35836578#0 35782160#0 35782159#0 35782159#1 35782159#2 35782159#3 75503613#0 75503613#1 75503604 23162032#0 23162032#1 23162032#2 23162032#3 23162032#4 23162032#5 35902750#0 35902750#1"/>
        <route edges="27594170#0 27594170#1 35835337#0 35835337#1 35836578#0 35782160#0 35782159#0 35782159#1 35782159#2 35782159#3 75503613#0 75503613#1 75503604 23162032#0 23162032#1 23162032#2 35773427#0 35773427#1 35901888#1"/>
        <route edges="27594170#0 27594170#1 35835337#0 35835337#1 35836578#0 35782160#0 35782159#0 35782159#1 35782159#2 35782159#3 75503613#0 75503613#1 75503604 23162032#0 27617819 10070475#0 10070475#1 146196600#0 -10028184#1 -10028184#0 10051733 72456721"/>
        <route edges="27594170#0 27594170#1 35835337#0 35835337#1 35836578#0 35782160#0 35782159#0 35782159#1 35782159#2 35782159#3 75503613#0 75503613#1 75503604 75503605#0 35901826 23162040 10070449#0 10070449#1 10070449#2 100152272 27131168#2 27131168#3 146544715 -35786768"/>
        <route edges="27594170#0 27594170#1 35835337#0 35835337#1 35836578#0 35782160#0 35782159#0 35782159#1 35782159#2 35782159#3 75503613#0 75503613#1 75503604 75503605#0 35901826 23162040 10070449#0 10070449#1 10070449#2 100152272 27131168#2 61279128 35903052#1 35903052#2 35903052#3 35923003"/>
        <route edges="27594170#0 27594170#1 35835337#0 35835337#1 35836578#0 35836578#1 35772491#0 35782159#1 35769592#0"/>
        <route edges="27594170#0 27594170#1 35835337#0 35835337#1 35836578#0 35836578#1 35836578#2 23042428 10023219 166301879#3 23051252#0 23051252#1 23051252#2 23051252#3 23051252#4 23051252#5 35901826 23162040 10070449#0 10070449#1 10070449#2 100152272 27131168#2 27131168#3 146544715 -35786768"/>
        <route edges="27594170#0 27594170#1 35835337#0 35835337#1 35836578#0 35836578#1 35836578#2 23042428 10023219 166301879#3 23051252#0 23051252#1 23051252#2 23051252#3 23051252#4 23051252#5 35901826 23162040 10070449#0 10070449#1 10070449#2 100152272 27131168#2 61279128 35903052#1 35903052#2 35903052#3 35923003"/>
        <route edges="27594170#0 27594170#1 35835337#0 35835337#1 35836578#0 35836578#1 35836578#2 23042428 10023219 166301879#3 23051252#0 23051252#1 23051252#2 23051252#3 23051252#4 23051252#5 35901826 23162040 10070449#0 10070449#1 10070449#2 10070449#3 10070449#4 72456716 10051733 72456721"/>
        <route edges="27594170#0 27594170#1 35835337#0 35835337#1 35836578#0 35836578#1 35836578#2 23042428 10023219 166301879#3 23051252#0 23051252#1 23051252#2 23051252#3 23051252#4 23051252#5 35901826 23162040 10070449#0 10070449#1 10070449#2 10070449#3 10070449#4 72456716 10051758 34474997#0 35901888#0 35901888#1"/>
        <route edges="27594170#0 27594170#1 35835337#0 35835337#1 35836578#0 35836578#1 35836578#2 23042428 -166301881 -10023489 -35772696#1 -35772696#0 34435272"/>
    </routeDistribution>
    <routeDistribution id="io0020150.trips.xml">
        <route edges="35777378 34436912 35836578#0 35782160#0 35782159#0 35782159#1 35769592#0"/>
        <route edges="35777378 34436912 35836578#0 35782160#0 35782159#0 35782159#1 35782159#2 35782159#3 75503613#0 75503613#1 75503604 23162032#0 23162032#1 23162032#2 23162032#3 23162032#4 23162032#5 35902750#0 35902750#1"/>
        <route edges="35777378 34436912 35836578#0 35782160#0 35782159#0 35782159#1 35782159#2 35782159#3 75503613#0 75503613#1 75503604 23162032#0 23162032#1 23162032#2 35773427#0 35773427#1 35901888#1"/>
        <route edges="35777378 34436912 35836578#0 35782160#0 35782159#0 35782159#1 35782159#2 35782159#3 75503613#0 75503613#1 75503604 23162032#0 27617819 10070475#0 10070475#1 146196600#0 -10028184#1 -10028184#0 10051733 72456721"/>
        <route edges="35777378 34436912 35836578#0 35782160#0 35782159#0 35782159#1 35782159#2 35782159#3 75503613#0 75503613#1 75503604 75503605#0 35901826 23162040 10070449#0 10070449#1 10070449#2 100152272 27131168#2 27131168#3 146544715 -35786768"/>
        <route edges="35777378 34436912 35836578#0 35782160#0 35782159#0 35782159#1 35782159#2 35782159#3 75503613#0 75503613#1 75503604 75503605#0 35901826 23162040 10070449#0 10070449#1 10070449#2 100152272 27131168#2 61279128 35903052#1 35903052#2 35903052#3 35923003"/>
        <route edges="35777378 34436912 35836578#0 35836578#1 35772491#0 35782159#1 35769592#0"/>
        <route edges="35777378 34436912 35836578#0 35836578#1 35772491#0 35782159#1 35782159#2 35782159#3 75503613#0 75503613#1 75503604 23162032#0 23162032#1 23162032#2 23162032#3 23162032#4 23162032#5 35902750#0 35902750#1"/>
        <route edges="35777378 34436912 35836578#0 35836578#1 35836578#2 23042428 10023219 166301879#3 166301879#4 75503615 75503613#1 75503604 23162032#0 23162032#1 23162032#2 23162032#3 23162032#4 23162032#5 35902750#0 35902750#1"/>
        <route edges="35777378 34436912 35836578#0 35836578#1 35836578#2 23042428 10023219 166301879#3 23051252#0 23051252#1 23051252#2 23051252#3 23051252#4 23051252#5 35901826 23162040 10070449#0 10070449#1 10070449#2 100152272 27131168#2 27131168#3 146544715 -35786768"/>
        <route edges="35777378 34436912 35836578#0 35836578#1 35836578#2 23042428 10023219 166301879#3 23051252#0 23051252#1 23051252#2 23051252#3 23051252#4 23051252#5 35901826 23162040 10070449#0 10070449#1 10070449#2 100152272 27131168#2 61279128 35903052#1 35903052#2 35903052#3 35923003"/>
        <route edges="35777378 34436912 35836578#0 35836578#1 35836578#2 23042428 10023219 166301879#3 23051252#0 23051252#1 23051252#2 23051252#3 23051252#4 23051252#5 35901826 23162040 10070449#0 10070449#1 10070449#2 10070449#3 10070449#4 72456716 10051733 72456721"/>
        <route edges="35777378 34436912 35836578#0 35836578#1 35836578#2 23042428 10023219 166301879#3 23051252#0 23051252#1 23051252#2 23051252#3 23051252#4 23051252#5 35901826 23162040 10070449#0 10070449#1 10070449#2 10070449#3 10070449#4 72456716 10051758 34474997#0 35901888#0 35901888#1"/>
        <route edges="35777378 34436912 35836578#0 35836578#1 35836578#2 23042428 10023219 166301879#3 23051252#0 23051252#1 23051252#2 23051252#3 23051252#4 23051252#5 35901826 23162040 10070449#0 35901640 -10028184#2 -10028184#1 -10028184#0 10051733 72456721"/>
        <route edges="35777378 34436912 35836578#0 35836578#1 35836578#2 23042428 -166301881 -10023489 -35772696#1 -35772696#0 34435272"/>
        <route edges="35777378 35769669#0 35769669#1 35835163#3"/>
        <route edges="35777378 35769669#0 35835339 35835337#1 -34436912 -35777378"/>
    </routeDistribution>
    <routeDistribution id="io0030150.trips.xml">
        <route edges="-34435272 35772671 35772696#1 10023489 166301881 10023219 166301879#3 166301879#4 166301879#5 166301879#0 166301879#1 75503606 -166301881 -10023489 -35772696#1 -35772696#0 34435272"/>
        <route edges="-34435272 35772671 35772696#1 10023489 166301881 10023219 166301879#3 166301879#4 75503615 75503613#1 75503604 23162032#0 23162032#1 23162032#2 23162032#3 23162032#4 23162032#5 35902750#0 35902750#1"/>
        <route edges="-34435272 35772671 35772696#1 10023489 166301881 10023219 166301879#3 166301879#4 75503615 75503613#1 75503604 23162032#0 23162032#1 23162032#2 35773427#0 35773427#1 35901888#1"/>
        <route edges="-34435272 35772671 35772696#1 10023489 166301881 10023219 166301879#3 23051252#0 23051252#1 23051252#2 23051252#3 23051252#4 23051252#5 35901826 23162040 10070449#0 10070449#1 10070449#2 100152272 27131168#2 27131168#3 146544715 -35786768"/>
        <route edges="-34435272 35772671 35772696#1 10023489 166301881 10023219 166301879#3 23051252#0 23051252#1 23051252#2 23051252#3 23051252#4 23051252#5 35901826 23162040 10070449#0 10070449#1 10070449#2 100152272 27131168#2 61279128 35903052#1 35903052#2 35903052#3 35923003"/>
        <route edges="-34435272 35772671 35772696#1 10023489 166301881 10023219 166301879#3 23051252#0 23051252#1 23051252#2 23051252#3 23051252#4 23051252#5 35901826 23162040 10070449#0 10070449#1 10070449#2 10070449#3 10070449#4 72456716 10051733 72456721"/>
        <route edges="-34435272 35772671 35772696#1 10023489 166301881 10023219 166301879#3 23051252#0 23051252#1 23051252#2 23051252#3 23051252#4 23051252#5 35901826 23162040 10070449#0 10070449#1 10070449#2 10070449#3 10070449#4 72456716 10051758 34474997#0 35901888#0 35901888#1"/>
        <route edges="-34435272 35772671 35772696#1 10023489 166301881 10023219 166301879#3 23051252#0 23051252#1 23051252#2 23051252#3 23051252#4 23051252#5 35901826 23162040 10070449#0 35901640 -10028184#2 -10028184#1 -10028184#0 10051733 72456721"/>
        <route edges="-34435272 35772671 35772696#1 10023489 166301881 -23042428 -35836578#2 35772491#0 35782159#1 35769592#0"/>
        <route edges="-34435272 35772671 35772696#1 10023489 166301881 -23042428 -35836578#2 -35836578#1 35782160#0 35782160#1 35835163#2 35835163#3"/>
        <route edges="-34435272 35772671 35772696#1 10023489 166301881 -23042428 -35836578#2 -35836578#1 -35836578#0 -34436912 35769669#0 35769669#1 35835163#3"/>
        <route edges="-34435272 35772671 35772696#1 10023489 166301881 -23042428 -35836578#2 -35836578#1 -35836578#0 -34436912 -35777378"/>
        <route edges="-34435272 35772671 35772696#1 10023489 166301882 75503610#1 23051252#1 23051252#2 23051252#3 23051252#4 23051252#5 35901826 23162040 10070449#0 10070449#1 10070449#2 100152272 27131168#2 27131168#3 146544715 -35786768"/>
        <route edges="-34435272 35772671 35772696#1 10023489 166301882 75503610#1 23051252#1 23051252#2 23051252#3 23051252#4 23051252#5 35901826 23162040 10070449#0 10070449#1 10070449#2 100152272 27131168#2 61279128 35903052#1 35903052#2 35903052#3 35923003"/>
        <route edges="-34435272 35772671 35772696#1 10023489 166301882 75503610#1 23051252#1 23051252#2 23051252#3 23051252#4 23051252#5 35901826 23162040 10070449#0 10070449#1 10070449#2 10070449#3 10070449#4 10070449#5 72456721"/>
        <route edges="-34435272 35772671 35772696#1 10023489 166301882 75503610#1 23051252#1 23051252#2 23051252#3 23051252#4 23051252#5 35901826 23162040 10070449#0 10070449#1 10070449#2 10070449#3 10070449#4 72456716 10051733 72456721"/>
        <route edges="-34435272 35772671 35772696#1 10023489 166301882 75503610#1 23051252#1 23051252#2 23051252#3 23051252#4 23051252#5 35901826 23162040 10070449#0 10070449#1 10070449#2 10070449#3 10070449#4 72456716 10051758 34474997#0 35901888#0 35901888#1"/>
        <route edges="-34435272 35772671 35772792 35772520#0 35772520#1 35772520#2 35772520#3 36197574 36197777 10051298 72446184#1 35836418 35901826 23162040 10070449#0 10070449#1 10070449#2 100152272 27131168#2 27131168#3 146544715 -35786768"/>
        <route edges="-34435272 35772671 35772792 35772520#0 35772520#1 35772520#2 35772520#3 36197574 36197777 10051298 72446184#1 35836418 35901826 23162040 10070449#0 10070449#1 10070449#2 100152272 27131168#2 61279128 35903052#1 35903052#2 35903052#3 35923003"/>
        <route edges="-34435272 35772671 35772792 35772520#0 35772520#1 35772520#2 35772520#3 36197574 36197777 10051298 72446184#1 35836418 35901826 23162040 10070449#0 10070449#1 10070449#2 10070449#3 10070449#4 72456716 10051733 72456721"/>
        <route edges="-34435272 35772671 35772792 35772520#0 35772520#1 35772520#2 35772520#3 36197574 36197777 10051298 72446184#1 35836418 35901826 23162040 10070449#0 10070449#1 10070449#2 10070449#3 10070449#4 72456716 10051758 34474997#0 35901888#0 35901888#1"/>
        <route edges="-34435272 35772671 35772792 35772520#0 35772520#1 35772520#2 35772520#3 36197574 36197777 10051298 72446184#1 35836418 -75503605#0 23162032#0 23162032#1 23162032#2 23162032#3 23162032#4 23162032#5 35902750#0 35902750#1"/>
        <route edges="-34435272 35772671 35772792 35772520#0 35772520#1 35772577 35836542#4 35836542#5 35836542#6 -35772696#1 -35772696#0 34435272"/>
    </routeDistribution>
    <routeDistribution id="io0040150.trips.xml">
        <route edges="35786768 -146544715 35903338 10070449#4 10070449#5 72456721"/>
        <route edges="35786768 -146544715 35903338 10070449#4 72456716 10028184#0 10028184#1 10028184#2 146546030#0 146546030#1 146546034 35901833#1 35901598#0 35901598#1 35901598#2 35901598#3 35901598#4 166301879#5 166301879#0 166301879#1 75503606 -166301881 -10023489 -35772696#1 -35772696#0 34435272"/>
        <route edges="35786768 -146544715 35903338 10070449#4 72456716 10028184#0 10028184#1 10028184#2 146546030#0 146546030#1 146546034 35901833#1 35901598#0 35901598#1 35901598#2 35901598#3 35901598#4 166301879#5 166301879#0 166301880 -35836578#2 35772491#0 35782159#1 35769592#0"/>
        <route edges="35786768 -146544715 35903338 10070449#4 72456716 10028184#0 10028184#1 10028184#2 146546030#0 146546030#1 146546034 35901833#1 35901598#0 35901598#1 35901598#2 35901598#3 35901598#4 166301879#5 166301879#0 166301880 -35836578#2 -35836578#1 -35836578#0 -34436912 -35777378"/>
        <route edges="35786768 -146544715 35903338 10070449#4 72456716 10028184#0 10028184#1 10028184#2 146546030#0 146546030#1 146546034 35901833#1 35901598#0 35901598#1 35901598#2 35901598#3 35901598#4 75503615 75503613#1 75503603 75503611#1 75503612#0 75503612#1 75503612#2 35835163#0 35835163#1 35835163#2 35835163#3"/>
        <route edges="35786768 -146544715 35903338 10070449#4 72456716 10051733 72456721"/>
        <route edges="35786768 -146544715 35903338 10070449#4 72456716 10051758 34474997#0 34474997#1 34474997#2 35902793#1 35902793#2 23162032#5 35902750#0 35902750#1"/>
        <route edges="35786768 -146544715 35903338 10070449#4 72456716 10051758 34474997#0 34474997#1 34474997#2 35902793#1 35902870 23162042 35902750#0 35902750#1"/>
        <route edges="35786768 -146544715 35903338 10070449#4 72456716 10051758 34474997#0 35900161 149887421 35903646 -35786768"/>
        <route edges="35786768 -146544715 35903338 10070449#4 72456716 10051758 34474997#0 35901888#0 35901888#1"/>
        <route edges="35786768 -146544715 35903338 10070449#4 72456716 10051758 72455461#2 72455461#3 10023209#0 10023209#1 100152272 27131168#2 27131168#3 146544715 -35786768"/>
        <route edges="35786768 -146544715 35903338 10070449#4 72456716 10051758 72455461#2 72455461#3 72455461#4 72455461#5 146546030#1 146546034 35901833#1 35901598#0 35901598#1 35901598#2 35901598#3 35901598#4 166301879#5 166301879#0 166301879#1 75503606 -166301881 -10023489 -35772696#1 -35772696#0 34435272"/>
        <route edges="35786768 -146544715 35903338 10070449#4 72456716 10051758 72455461#2 72455461#3 72455461#4 72455461#5 146546030#1 146546034 35901833#1 35901598#0 35901598#1 35901598#2 35901598#3 35901598#4 166301879#5 166301879#0 166301880 -35836578#2 35772491#0 35782159#1 35769592#0"/>
        <route edges="35786768 -146544715 35903338 10070449#4 72456716 10051758 72455461#2 72455461#3 72455461#4 72455461#5 146546030#1 146546034 35901833#1 35901598#0 35901598#1 35901598#2 35901598#3 35901598#4 166301879#5 166301879#0 166301880 -35836578#2 -35836578#1 -35836578#0 -34436912 -35777378"/>
        <route edges="35786768 -146544715 35903338 10070449#4 72456716 10051758 72455461#2 72455461#3 72455461#4 72455461#5 146546030#1 146546034 35901833#1 35901598#0 35901598#1 35901598#2 35901598#3 35901598#4 75503615 75503613#1 75503603 75503611#1 75503612#0 75503612#1 75503612#2 35835163#0 35835163#1 35835163#2 35835163#3"/>
        <route edges="35786768 35903681 35903052#1 35903052#2 27584067 10048532 27618005 113431926 35772671 35772696#1 10023489 166301881 -23042428 -35836578#2 35772491#0 35782159#1 35769592#0"/>
        <route edges="35786768 35903681 35903052#1 35903052#2 27584067 10048532 27618005 113431926 35772671 35772696#1 10023489 166301881 -23042428 -35836578#2 -35836578#1 35782160#0 35782160#1 35835163#2 35835163#3"/>
        <route edges="35786768 35903681 35903052#1 35903052#2 27584067 10048532 27618005 113431926 35772671 35772696#1 10023489 166301881 -23042428 -35836578#2 -35836578#1 -35836578#0 -34436912 -35777378"/>
        <route edges="35786768 35903681 35903052#1 35903052#2 27584067 10048532 27618005 113431926 35772671 35772792 35772520#0 35772520#1 35772577 35836542#4 35836542#5 35836542#6 -35772696#1 -35772696#0 34435272"/>
        <route edges="35786768 35903681 35903052#1 35903052#2 35903052#3 35923003"/>
    </routeDistribution>
    <routeDistribution id="io0050150.trips.xml">
        <route edges="35900338 72455461#0 72455461#1 34474997#0 34474997#1 34474997#2 35902793#1 35902793#2 23162032#5 35902750#0 35902750#1"/>
        <route edges="35900338 72455461#0 72455461#1 34474997#0 34474997#1 34474997#2 35902793#1 35902870 23162042 35902750#0 35902750#1"/>
        <route edges="35900338 72455461#0 72455461#1 34474997#0 35900161 149887421 35903646 -35786768"/>
        <route edges="35900338 72455461#0 72455461#1 34474997#0 35900161 149887421 35903646 35903681 35903052#1 35903052#2 35903052#3 35923003"/>
        <route edges="35900338 72455461#0 72455461#1 34474997#0 35901888#0 35901888#1"/>
        <route edges="35900338 72455461#0 72455461#1 72455461#2 72455461#3 10023209#0 10023209#1 100152272 27131168#2 27131168#3 146544715 -35786768"/>
        <route edges="35900338 72455461#0 72455461#1 72455461#2 72455461#3 10023209#0 10023209#1 100152272 27131168#2 61279128 35903052#1 35903052#2 35903052#3 35923003"/>
        <route edges="35900338 72455461#0 72455461#1 72455461#2 72455461#3 10023209#0 10023209#1 10070449#3 10070449#4 72456716 10051733 72456721"/>
        <route edges="35900338 72455461#0 72455461#1 72455461#2 72455461#3 10023209#0 -10028184#0 10051733 72456721"/>
        <route edges="35900338 72455461#0 72455461#1 72455461#2 72455461#3 72455461#4 72455461#5 146546030#1 146546034 35901833#1 35901598#0 35901598#1 35901598#2 35901598#3 35901598#4 166301879#5 166301879#0 166301879#1 75503606 -166301881 -10023489 -35772696#1 -35772696#0 34435272"/>
        <route edges="35900338 72455461#0 72455461#1 72455461#2 72455461#3 72455461#4 72455461#5 146546030#1 146546034 35901833#1 35901598#0 35901598#1 35901598#2 35901598#3 35901598#4 166301879#5 166301879#0 166301880 -35836578#2 35772491#0 35782159#1 35769592#0"/>
        <route edges="35900338 72455461#0 72455461#1 72455461#2 72455461#3 72455461#4 72455461#5 146546030#1 146546034 35901833#1 35901598#0 35901598#1 35901598#2 35901598#3 35901598#4 166301879#5 166301879#0 166301880 -35836578#2 -35836578#1 -35836578#0 -34436912 -35777378"/>
        <route edges="35900338 72455461#0 72455461#1 72455461#2 72455461#3 72455461#4 72455461#5 146546030#1 146546034 35901833#1 35901598#0 35901598#1 35901598#2 35901598#3 35901598#4 75503615 75503613#1 75503603 75503611#1 75503612#0 75503612#1 75503612#2 35835163#0 35835163#1 35835163#2 35835163#3"/>
        <route edges="35900338 72456715 10028184#0 10028184#1 10028184#2 146546030#0 146546030#1 146546034 35901833#1 35901598#0 35901598#1 35901598#2 35901598#3 35901598#4 166301879#5 166301879#0 166301879#1 75503606 -166301881 -10023489 -35772696#1 -35772696#0 34435272"/>
        <route edges="35900338 72456715 10028184#0 10028184#1 10028184#2 146546030#0 146546030#1 146546034 35901833#1 35901598#0 35901598#1 35901598#2 35901598#3 35901598#4 166301879#5 166301879#0 166301880 -35836578#2 35772491#0 35782159#1 35769592#0"/>
        <route edges="35900338 72456715 10028184#0 10028184#1 10028184#2 146546030#0 146546030#1 146546034 35901833#1 35901598#0 35901598#1 35901598#2 35901598#3 35901598#4 166301879#5 166301879#0 166301880 -35836578#2 -35836578#1 -35836578#0 -34436912 -35777378"/>
        <route edges="35900338 72456715 10028184#0 10028184#1 10028184#2 146546030#0 146546030#1 146546034 35901833#1 35901598#0 35901598#1 35901598#2 35901598#3 35901598#4 75503615 75503613#1 75503603 75503611#1 75503612#0 75503612#1 75503612#2 35835163#0 35835163#1 35835163#2 35835163#3"/>
        <route edges="35900338 72456715 10028184#0 10028184#1 10028184#2 146546030#0 146546030#1 146546034 35901833#1 -75503605#0 23051254#0 75503694 75503692 10079357 35835163#1 35835163#2 35835163#3"/>
    </routeDistribution>
    <routeDistribution id="io0060150.trips.xml">
        <route edges="10023400 100140740 35902750#1"/>
        <route edges="10023400 100140740 42431911#1 35902793#4 35902785#0 100152246 27617819 10070475#0 10070475#1 146196600#0 -10028184#1 -10028184#0 10051733 72456721"/>
        <route edges="10023400 100140740 42431911#1 35902793#4 35902785#0 100152246 35902785#2 23051254#0 75503694 75503692 10079357 35835163#1 35835163#2 35835163#3"/>
        <route edges="10023400 100140740 42431911#1 35902793#4 35902785#0 100152246 35902785#2 75503605#0 -35836418 35836413#0 35836413#1 27594178#1 35836542#1 35836542#2 35836542#3 35836542#4 35836542#5 35836542#6 -35772696#1 -35772696#0 34435272"/>
        <route edges="10023400 100140740 42431911#1 35902793#4 35902785#0 100152246 35902785#2 75503605#0 35901598#0 35901598#1 35901598#2 35901598#3 35901598#4 166301879#5 166301879#0 166301880 -35836578#2 35772491#0 35782159#1 35769592#0"/>
        <route edges="10023400 100140740 42431911#1 35902793#4 35902785#0 100152246 35902785#2 75503605#0 35901598#0 35901598#1 35901598#2 35901598#3 35901598#4 166301879#5 166301879#0 166301880 -35836578#2 -35836578#1 -35836578#0 -34436912 -35777378"/>
        <route edges="10023400 100140740 42431911#1 35902793#4 35902793#0 35902793#1 35902870 10023511 149887421 35903646 -35786768"/>
        <route edges="10023400 100140740 42431911#1 35902793#4 35902793#0 35902793#1 35902870 10023511 149887421 35903646 35903681 35903052#1 35903052#2 35903052#3 35923003"/>
        <route edges="10023400 100140740 42431911#1 35902793#4 35902793#0 35902793#1 35902870 10023511 -35900161 35901888#0 35901888#1"/>
        <route edges="10023400 42431911#0 42431911#1 35902793#4 35902793#0 35902793#1 35902870 10023511 149887421 35903646 -146544715 35903338 10070449#4 72456716 10051733 72456721"/>
        <route edges="10023400 42431911#0 42431911#1 35902793#4 35902793#0 35902793#1 35902870 10023511 149887421 35903646 -35786768"/>
        <route edges="10023400 42431911#0 42431911#1 35902793#4 35902793#0 35902793#1 35902870 10023511 149887421 35903646 35903681 35903052#1 35903052#2 35903052#3 35923003"/>
        <route edges="10023400 42431911#0 42431911#1 35902793#4 35902793#0 35902793#1 35902870 10023511 -35900161 35901888#0 35901888#1"/>
        <route edges="10023400 42431911#0 42431911#1 42431911#2 35902785#0 100152246 27617819 10070475#0 10070475#1 146196600#0 -10028184#1 -10028184#0 10051733 72456721"/>
        <route edges="10023400 42431911#0 42431911#1 42431911#2 35902785#0 100152246 27617819 10070475#0 10070475#1 146196600#0 146196600#1 10070449#2 100152272 27131168#2 61279128 35903052#1 35903052#2 35903052#3 35923003"/>
        <route edges="10023400 42431911#0 42431911#1 42431911#2 35902785#0 100152246 27617819 10070475#0 10070475#1 146196600#0 146196600#1 10070449#2 10070449#3 10070449#4 72456716 10051733 72456721"/>
        <route edges="10023400 42431911#0 42431911#1 42431911#2 35902785#0 35902785#1 35902785#2 23051254#0 23051254#1 75503611#0 75503611#1 75503612#0 75503612#1 75503612#2 35835163#0 35835163#1 35835163#2 35835163#3"/>
        <route edges="10023400 42431911#0 42431911#1 42431911#2 35902785#0 35902785#1 35902785#2 75503605#0 -35836418 35836413#0 35836413#1 27594178#1 35836542#1 35836542#2 35836542#3 35836542#4 35836542#5 35836542#6 10023489 166301881 -23042428 -35836578#2 35772491#0 35782159#1 35769592#0"/>
        <route edges="10023400 42431911#0 42431911#1 42431911#2 35902785#0 35902785#1 35902785#2 75503605#0 -35836418 35836413#0 35836413#1 27594178#1 35836542#1 35836542#2 35836542#3 35836542#4 35836542#5 35836542#6 10023489 166301881 -23042428 -35836578#2 -35836578#1 -35836578#0 -34436912 35769669#0 35769669#1 35835163#3"/>
        <route edges="10023400 42431911#0 42431911#1 42431911#2 35902785#0 35902785#1 35902785#2 75503605#0 -35836418 35836413#0 35836413#1 27594178#1 35836542#1 35836542#2 35836542#3 35836542#4 35836542#5 35836542#6 10023489 166301881 -23042428 -35836578#2 -35836578#1 -35836578#0 -34436912 -35777378"/>
        <route edges="10023400 42431911#0 42431911#1 42431911#2 35902785#0 35902785#1 35902785#2 75503605#0 -35836418 35836413#0 35836413#1 27594178#1 35836542#1 35836542#2 35836542#3 35836542#4 35836542#5 35836542#6 -35772696#1 -35772696#0 34435272"/>
        <route edges="10023400 42431911#0 42431911#1 42431911#2 35902785#0 35902785#1 35902785#2 75503605#0 35901598#0 35901598#1 35901598#2 35901598#3 35901598#4 166301879#5 166301879#0 166301879#1 75503606 -166301881 -10023489 -35772696#1 -35772696#0 34435272"/>
        <route edges="10023400 42431911#0 42431911#1 42431911#2 35902785#0 35902785#1 35902785#2 75503605#0 35901598#0 35901598#1 35901598#2 35901598#3 35901598#4 166301879#5 166301879#0 166301880 -35836578#2 35772491#0 35782159#1 35769592#0"/>
        <route edges="10023400 42431911#0 42431911#1 42431911#2 35902785#0 35902785#1 35902785#2 75503605#0 35901598#0 35901598#1 35901598#2 35901598#3 35901598#4 166301879#5 166301879#0 166301880 -35836578#2 -35836578#1 -35836578#0 -34436912 -35777378"/>
    </routeDistribution>
    <routeDistribution id="io0070150.trips.xml">
        <route edges="23162043 10023217 -35900161 34474997#1 34474997#2 35902793#1 35902793#2 23162032#5 35902750#0 35902750#1"/>
        <route edges="23162043 10023217 -35900161 34474997#1 34474997#2 35902793#1 35902793#2 35902793#4 35902785#0 100152246 35902785#2 23051254#0 75503694 75503692 10079357 35835163#1 35835163#2 35835163#3"/>
        <route edges="23162043 10023217 -35900161 34474997#1 34474997#2 35902793#1 35902870 23162042 35902750#0 35902750#1"/>
        <route edges="23162043 10023217 -35900161 35901888#0 35773427#2 72455461#3 10023209#0 10028184#1 10028184#2 146546030#0 146546030#1 146546034 35901833#1 35901598#0 35901598#1 35901598#2 35901598#3 35901598#4 166301879#5 166301879#0 166301879#1 75503606 -166301881 -10023489 -35772696#1 -35772696#0 34435272"/>
        <route edges="23162043 10023217 -35900161 35901888#0 35773427#2 72455461#3 10023209#0 10028184#1 10028184#2 146546030#0 146546030#1 146546034 35901833#1 35901598#0 35901598#1 35901598#2 35901598#3 35901598#4 166301879#5 166301879#0 166301880 -35836578#2 35772491#0 35782159#1 35769592#0"/>
        <route edges="23162043 10023217 -35900161 35901888#0 35773427#2 72455461#3 10023209#0 10028184#1 10028184#2 146546030#0 146546030#1 146546034 35901833#1 35901598#0 35901598#1 35901598#2 35901598#3 35901598#4 166301879#5 166301879#0 166301880 -35836578#2 -35836578#1 -35836578#0 -34436912 -35777378"/>