<?xml version="1.0" encoding="UTF-8"?>
<routes> <!-- xmlns:xsi="http://www.w3.org/2001/XMLSchema-instance"
   xsi:noNamespaceSchemaLocation="http://sumo.sf.net/xsd/routes_file.xsd">-->

   <vType id="sedan" accel="0.9" decel="5.0" sigma="0.5" minGap="1.0" length="3.8" maxSpeed="50.0" speedDev="0.1" impatience="0.1" color="1,1,0" guiShape="passenger/sedan" />

    <routeDistribution id="001">
        <route edges="100105828#0 100105828#1 100105828#2 100105828#3 -100105876 -10032034 -75503612 75503608 100105878#0 100105878#1 61494208 166301879#0 166301879#1 166301879#2 166301879#3 23051252#0 23051252#1 23051252#2 23051252#3 23051252#4 23051252#5 35901826 23162040 10070449#0 10070449#1 10070449#2 100152272 27131168#2 27131168#3 146544715 -35786768"/>
    </routeDistribution>
    <routeDistribution id="002">
        <route edges="100105828#0 100105828#1 100105828#2 100105828#3 -100105876 -10032034 -75503612 75503608 100105878#0 100105878#1 61494208 166301879#0 166301879#1 166301879#2 166301879#3 23051252#0 23051252#1 23051252#2 23051252#3 23051252#4 23051252#5 35901826 23162040 10070449#0 35901640 -10028184#2 -10028184#1 -10028184#0 10051733 72456721"/>
    </routeDistribution>
    <routeDistribution id="003">
        <route edges="100105828#0 100105828#1 100105828#2 100105828#3 -100105876 -10032034 -75503612 75503608 100105878#0 100105874 75503604 23162032#0 23162032#1 23162032#2 23162032#3 23162032#4 23162032#5 35902750#0 35902750#1 23162033"/>
    </routeDistribution>
    <routeDistribution id="004">
        <route edges="100105828#0 100105828#1 100105828#2 100105828#3 -100105876 -10032034 -75503612 35835275#0 35769592#1 10032034 100105876 35835163#0 35835163#1 35835163#2"/>
    </routeDistribution>
    <routeDistribution id="005">
        <route edges="100105828#0 100105828#1 100105828#2 100105828#3 -100105876 -10032034 -75503612 75503608 100105878#0 100105878#1 61494208 166301879#0 166301880 -35836578#2 -35836578#1 -35836578#0"/>
    </routeDistribution>
    <routeDistribution id="006">
        <route edges="100105828#0 100105828#1 100105828#2 100105828#3 -100105876 -10032034 -75503612 75503608 100105878#0 100105878#1 61494208 166301879#0 166301879#1 75503606 -100105822 -10023489 -35772696#1 -35772696#0 34435272#0 34435272#1 34435272#2 34435272#3 34435272#4"/>
    </routeDistribution>
    <routeDistribution id="007">
        <route edges="100105828#0 100105828#1 100105828#2 100105828#3 -100105876 -10032034 -75503612 75503608 100105878#0 100105878#1 61494208 166301879#0 166301879#1 166301879#2 166301879#3 23051252#0 23051252#1 23051252#2 23051252#3 23051252#4 23051252#5 35901826 23162040 10070449#0 10070449#1 10070449#2 100152272 27131168#2 61279128 35903052#1 35903052#2 35903052#3 35923003#0 35923003#1 35923003#2 35923003#3"/>
    </routeDistribution>
    <routeDistribution id="008">
        <route edges="100105828#0 100105828#1 100105828#2 100105828#3 -100105876 -10032034 -75503612 75503608 100105878#0 100105878#1 61494208 166301879#0 166301879#1 166301879#2 166301879#3 23051252#0 23051252#1 23051252#2 23051252#3 23051252#4 23051252#5 -35836418 35836413#0 35836413#1 27594178#1 35836542#1 35836542#2 35836542#3 35836542#4"/>
    </routeDistribution>
    <routeDistribution id="009">
        <route edges="100105828#0 100105828#1 100105828#2 100105828#3 -100105876 -10032034 -75503612 75503608 100105878#0 100105878#1 61494208 166301879#0 166301879#1 75503606 -100105822 -10023489 -35772696#1 -35772696#0 -27584441 10022935 34435254 35842748#0 35842748#1 151151441 27617970#1 27618005#0 27618005#1"/>
    </routeDistribution>
    <routeDistribution id="010">
        <route edges="10023640 35923003#0 35923003#1 35923003#2 35923003#3"/>
    </routeDistribution>
    <routeDistribution id="011">
        <route edges="35900338 72455461#0 34474997#0 34474997#1 34474997#2 35902793#1 35902793#2 23162032#5 35902750#0 35902750#1 23162033"/>
    </routeDistribution>
    <routeDistribution id="012">
        <route edges="35900338 72456715 10028184#0 10028184#1 10028184#2 146546030#0 146546030#1 146546034 35901833#1 35901598#0 35901598#1 35901598#2 35901598#3 35901598#4 75503615 10084269 75503611#0 75503611#1 -75503608 75503612 10032034 100105876 35835163#0 35835163#1 35835163#2"/>
    </routeDistribution>
    <routeDistribution id="013">
        <route edges="35900338 72456715 10028184#0 10028184#1 10028184#2 146546030#0 146546030#1 146546034 35901833#1 35901598#0 35901598#1 35901598#2 35901598#3 35901598#4 166301879#5 100194609 166301879#0 166301880 -35836578#2 -35836578#1 -35836578#0"/>
    </routeDistribution>
    <routeDistribution id="014">
        <route edges="35900338 72456715 10028184#0 10028184#1 10028184#2 146546030#0 146546030#1 146546034 35901833#1 35901598#0 35901598#1 35901598#2 35901598#3 35901598#4 166301879#5 100194609 166301879#0 166301879#1 75503606 -100105822 -10023489 -35772696#1 -35772696#0 34435272#0 34435272#1 34435272#2 34435272#3 34435272#4"/>
    </routeDistribution>
    <routeDistribution id="015">
        <route edges="35900338 72455461#0 72455461#1 72455461#2 10023209#0 10023209#1 100152272 27131168#2 61279128 35903052#1 35903052#2 35903052#3 35923003#0 35923003#1 35923003#2 35923003#3"/>
    </routeDistribution>
    <routeDistribution id="016">
        <route edges="35900338 72456715 10028184#0 10028184#1 10028184#2 146546030#0 146546030#1 146546034 35901833#1 -35836418 35836413#0 35836413#1 27594178#1 35836542#1 35836542#2 35836542#3 35836542#4"/>
    </routeDistribution>
    <routeDistribution id="017">
        <route edges="35900338 72455461#0 72455461#1 72455461#2 10023209#0 10023209#1 100152272 27131168#2 61279128 35903052#1 35903052#2 27584067 10080012 27618005#0 27618005#1"/>
    </routeDistribution>
    <routeDistribution id="018">
        <route edges="23162031 42431911#0 42431911#1 42431911#2 35902785#0 35902785#1 35902785#2 10023207 75503605#0 35901826 23162040 10070449#0 10070449#1 10070449#2 100152272 27131168#2 27131168#3 146544715 -35786768"/>
    </routeDistribution>
    <routeDistribution id="019">
        <route edges="23162031 42431911#0 42431911#1 42431911#2 35902785#0 35902785#1 35902785#2 10023207 75503605#0 35901826 23162040 10070449#0 35901640 -10028184#2 -10028184#1 -10028184#0 10051733 72456721"/>
    </routeDistribution>
    <routeDistribution id="020">
        <route edges="23162031 42431911#0 42431911#1 42431911#2 35902785#0 35902785#1 35902785#2 23051254#0 23051254#1 75503611#0 75503611#1 -75503608 75503612 10032034 100105876 35835163#0 35835163#1 35835163#2"/>
    </routeDistribution>
    <routeDistribution id="021">
        <route edges="23162031 42431911#0 42431911#1 42431911#2 35902785#0 35902785#1 35902785#2 10023207 75503605#0 35901598#0 35901598#1 35901598#2 35901598#3 35901598#4 166301879#5 100194609 166301879#0 166301880 -35836578#2 -35836578#1 -35836578#0"/>
    </routeDistribution>
    <routeDistribution id="022">
        <route edges="23162031 42431911#0 42431911#1 42431911#2 35902785#0 35902785#1 35902785#2 10023207 75503605#0 35901598#0 35901598#1 35901598#2 35901598#3 35901598#4 166301879#5 100194609 166301879#0 166301879#1 75503606 -100105822 -10023489 -35772696#1 -35772696#0 34435272#0 34435272#1 34435272#2 34435272#3 34435272#4"/>
    </routeDistribution>
    <routeDistribution id="023">
        <route edges="23162031 42431911#0 42431911#1 42431911#2 35902785#0 35902785#1 35902785#2 10023207 75503605#0 35901826 23162040 10070449#0 10070449#1 10070449#2 100152272 27131168#2 61279128 35903052#1 35903052#2 35903052#3 35923003#0 35923003#1 35923003#2 35923003#3"/>
    </routeDistribution>
    <routeDistribution id="024">
        <route edges="23162031 42431911#0 42431911#1 42431911#2 35902785#0 35902785#1 35902785#2 10023207 75503605#0 -35836418 35836413#0 35836413#1 27594178#1 35836542#1 35836542#2 35836542#3 35836542#4"/>
    </routeDistribution>
    <routeDistribution id="025">
        <route edges="23162031 42431911#0 42431911#1 42431911#2 35902785#0 35902785#1 35902785#2 10023207 75503605#0 35901826 23162040 10070449#0 10070449#1 10070449#2 100152272 27131168#2 61279128 35903052#1 35903052#2 27584067 10080012 27618005#0 27618005#1"/>
    </routeDistribution>
    <routeDistribution id="026">
        <route edges="27584109#0 27584109#1 10080012 27618005#0 27618005#1 27618005#2 113431926 35772671 35772696#1 10023489 100105826 23051252#1 23051252#2 23051252#3 23051252#4 23051252#5 35901826 23162040 10070449#0 10070449#1 10070449#2 100152272 27131168#2 27131168#3 146544715 -35786768"/>
    </routeDistribution>
    <routeDistribution id="027">
        <route edges="27584109#0 27584109#1 10080012 27618005#0 27618005#1 27618005#2 113431926 35772671 35772696#1 10023489 100105826 23051252#1 23051252#2 23051252#3 23051252#4 23051252#5 35901826 23162040 10070449#0 35901640 -10028184#2 -10028184#1 -10028184#0 10051733 72456721"/>
    </routeDistribution>
    <routeDistribution id="028">
        <route edges="27584109#0 27584109#1 10080012 27618005#0 27618005#1 27618005#2 113431926 35772671 35772696#1 10023489 100105826 23051252#1 23051252#2 23051252#3 23051252#4 23051252#5 -75503605#0 23162032#0 23162032#1 23162032#2 23162032#3 23162032#4 23162032#5 35902750#0 35902750#1 23162033"/>
    </routeDistribution>
    <routeDistribution id="029">
        <route edges="27584109#0 27584109#1 10080012 27618005#0 27618005#1 27618005#2 113431926 35772671 35772696#1 10023489 166301881 -23042428 -35836578#2 -35836578#1 35782160#0 35782160#1 35835163#2"/>
    </routeDistribution>
    <routeDistribution id="030">
        <route edges="27584109#0 27584109#1 10080012 27618005#0 27618005#1 27618005#2 113431926 35772671 35772696#1 10023489 166301881 -23042428 -35836578#2 -35836578#1 -35836578#0"/>
    </routeDistribution>
    <routeDistribution id="031">
        <route edges="27584109#0 27584109#1 10080012 27618005#0 27618005#1 27618005#2 10022935 34435254 36227055#0 36227055#1 34435272#2 34435272#3 34435272#4"/>
    </routeDistribution>
    <routeDistribution id="032">
        <route edges="27584109#0 27584109#1 10080012 27618005#0 27618005#1 27618005#2 113431926 35772671 35772792 35772520#0 35772520#1 35772577 35836542#4"/>
    </routeDistribution>
    <routeDistribution id="033">
        <route edges="27584109#0 27584109#1 10080012 27618005#0 27618005#1"/>
    </routeDistribution>
    <routeDistribution id="034">
        <route edges="35786768 -146544715 35903338 10070449#4 72456716 10051758 34474997#0 34474997#1 34474997#2 35902793#1 35902793#2 23162032#5 35902750#0 35902750#1 23162033"/>
    </routeDistribution>
    <routeDistribution id="035">
        <route edges="35786768 -146544715 35903338 10070449#4 72456716 10028184#0 10028184#1 10028184#2 146546030#0 146546030#1 146546034 35901833#1 35901598#0 35901598#1 35901598#2 35901598#3 35901598#4 75503615 10084269 75503611#0 75503611#1 -75503608 75503612 10032034 100105876 35835163#0 35835163#1 35835163#2"/>
    </routeDistribution>
    <routeDistribution id="036">
        <route edges="35786768 -146544715 35903338 10070449#4 72456716 10028184#0 10028184#1 10028184#2 146546030#0 146546030#1 146546034 35901833#1 35901598#0 35901598#1 35901598#2 35901598#3 35901598#4 166301879#5 100194609 166301879#0 166301880 -35836578#2 -35836578#1 -35836578#0"/>
    </routeDistribution>
    <routeDistribution id="037">
        <route edges="35786768 35903681 35903052#1 35903052#2 27584067 10080012 27618005#0 27618005#1 27618005#2 10022935 34435254 36227055#0 36227055#1 34435272#2 34435272#3 34435272#4"/>
    </routeDistribution>
    <routeDistribution id="038">
        <route edges="35786768 35903681 35903052#1 35903052#2 35903052#3 35923003#0 35923003#1 35923003#2 35923003#3"/>
    </routeDistribution>
    <routeDistribution id="039">
        <route edges="35786768 -146544715 35903338 10070449#4 72456716 10028184#0 10028184#1 10028184#2 146546030#0 146546030#1 146546034 35901833#1 -35836418 35836413#0 35836413#1 27594178#1 35836542#1 35836542#2 35836542#3 35836542#4"/>
    </routeDistribution>
    <routeDistribution id="040">
        <route edges="35786768 35903681 35903052#1 35903052#2 27584067 10080012 27618005#0 27618005#1"/>
    </routeDistribution>
    <routeDistribution id="041">
        <route edges="23162043 35899968 35903646 -35786768"/>
    </routeDistribution>
    <routeDistribution id="042">
        <route edges="23162043 10023217 -35900161 34474997#1 34474997#2 35902793#1 35902793#2 23162032#5 35902750#0 35902750#1 23162033"/>
    </routeDistribution>
    <routeDistribution id="043">
        <route edges="23162043 10023217 -35900161 35901888#0 35773427#2 72455461#2 10023209#0 10028184#1 10028184#2 146546030#0 146546030#1 146546034 35901833#1 35901598#0 35901598#1 35901598#2 35901598#3 35901598#4 75503615 10084269 75503611#0 75503611#1 -75503608 75503612 10032034 100105876 35835163#0 35835163#1 35835163#2"/>
    </routeDistribution>
    <routeDistribution id="044">
        <route edges="23162043 10023217 -35900161 35901888#0 35773427#2 72455461#2 10023209#0 10028184#1 10028184#2 146546030#0 146546030#1 146546034 35901833#1 35901598#0 35901598#1 35901598#2 35901598#3 35901598#4 166301879#5 100194609 166301879#0 166301880 -35836578#2 -35836578#1 -35836578#0"/>
    </routeDistribution>
    <routeDistribution id="045">
        <route edges="23162043 35899968 35903646 35903681 35903052#1 35903052#2 27584067 10080012 27618005#0 27618005#1 27618005#2 10022935 34435254 36227055#0 36227055#1 34435272#2 34435272#3 34435272#4"/>
    </routeDistribution>
    <routeDistribution id="046">
        <route edges="23162043 35899968 35903646 35903681 35903052#1 35903052#2 35903052#3 35923003#0 35923003#1 35923003#2 35923003#3"/>
    </routeDistribution>
    <routeDistribution id="047">
        <route edges="23162043 10023217 -35900161 35901888#0 35773427#2 72455461#2 10023209#0 10028184#1 10028184#2 146546030#0 146546030#1 146546034 35901833#1 -35836418 35836413#0 35836413#1 27594178#1 35836542#1 35836542#2 35836542#3 35836542#4"/>
    </routeDistribution>
    <routeDistribution id="048">
        <route edges="23162043 35899968 35903646 35903681 35903052#1 35903052#2 27584067 10080012 27618005#0 27618005#1"/>
    </routeDistribution>
    <routeDistribution id="049">
        <route edges="35836578#0 35836578#1 35836578#2 23042428 10023219 166301879#3 23051252#0 23051252#1 23051252#2 23051252#3 23051252#4 23051252#5 35901826 23162040 10070449#0 10070449#1 10070449#2 100152272 27131168#2 27131168#3 146544715 -35786768"/>
    </routeDistribution>
    <routeDistribution id="050">
        <route edges="35836578#0 35836578#1 35836578#2 23042428 10023219 166301879#3 23051252#0 23051252#1 23051252#2 23051252#3 23051252#4 23051252#5 35901826 23162040 10070449#0 35901640 -10028184#2 -10028184#1 -10028184#0 10051733 72456721"/>
    </routeDistribution>
    <routeDistribution id="051">
        <route edges="35836578#0 35836578#1 35836578#2 23042428 10023219 166301879#3 23051252#0 23051252#1 23051252#2 23051252#3 23051252#4 23051252#5 -75503605#0 23162032#0 23162032#1 23162032#2 23162032#3 23162032#4 23162032#5 35902750#0 35902750#1 23162033"/>
    </routeDistribution>
    <routeDistribution id="052">
        <route edges="35836578#0 35836578#1 35836578#2 23042428 -100105822 -10023489 -35772696#1 -35772696#0 34435272#0 34435272#1 34435272#2 34435272#3 34435272#4"/>
    </routeDistribution>
    <routeDistribution id="053">
        <route edges="35836578#0 35836578#1 35836578#2 23042428 10023219 166301879#3 23051252#0 23051252#1 23051252#2 23051252#3 23051252#4 23051252#5 35901826 23162040 10070449#0 10070449#1 10070449#2 100152272 27131168#2 61279128 35903052#1 35903052#2 35903052#3 35923003#0 35923003#1 35923003#2 35923003#3"/>
    </routeDistribution>
    <routeDistribution id="054">
        <route edges="35836578#0 35836578#1 35836578#2 23042428 10023219 166301879#3 23051252#0 23051252#1 23051252#2 23051252#3 23051252#4 23051252#5 -35836418 35836413#0 35836413#1 27594178#1 35836542#1 35836542#2 35836542#3 35836542#4"/>
    </routeDistribution>
    <routeDistribution id="055">
        <route edges="35836578#0 35836578#1 35836578#2 23042428 -100105822 -10023489 -35772696#1 -35772696#0 -27584441 10022935 34435254 35842748#0 35842748#1 151151441 27617970#1 27618005#0 27618005#1"/>
    </routeDistribution>
    <routeDistribution id="056">
        <route edges="-34435272#4 -34435272#3 -34435272#2 -34435272#1 -34435272#0 35772671 35772696#1 10023489 100105826 23051252#1 23051252#2 23051252#3 23051252#4 23051252#5 35901826 23162040 10070449#0 10070449#1 10070449#2 100152272 27131168#2 27131168#3 146544715 -35786768"/>
    </routeDistribution>
    <routeDistribution id="057">
        <route edges="-34435272#4 -34435272#3 -34435272#2 -34435272#1 -34435272#0 35772671 35772696#1 10023489 100105826 23051252#1 23051252#2 23051252#3 23051252#4 23051252#5 35901826 23162040 10070449#0 35901640 -10028184#2 -10028184#1 -10028184#0 10051733 72456721"/>
    </routeDistribution>
    <routeDistribution id="058">
        <route edges="-34435272#4 -34435272#3 -34435272#2 -34435272#1 -34435272#0 35772671 35772696#1 10023489 100105826 23051252#1 23051252#2 23051252#3 23051252#4 23051252#5 -75503605#0 23162032#0 23162032#1 23162032#2 23162032#3 23162032#4 23162032#5 35902750#0 35902750#1 23162033"/>
    </routeDistribution>
    <routeDistribution id="059">
        <route edges="-34435272#4 -34435272#3 -34435272#2 -34435272#1 -34435272#0 35772671 35772696#1 10023489 166301881 -23042428 -35836578#2 -35836578#1 35782160#0 35782160#1 35835163#2"/>
    </routeDistribution>
    <routeDistribution id="060">
        <route edges="-34435272#4 -34435272#3 -34435272#2 -34435272#1 -34435272#0 35772671 35772696#1 10023489 166301881 -23042428 -35836578#2 -35836578#1 -35836578#0"/>
    </routeDistribution>
    <routeDistribution id="061">
        <route edges="-34435272#4 -34435272#3 -34435272#2 -34435272#1 -34435272#0 35772671 35772696#1 10023489 100105826 23051252#1 23051252#2 23051252#3 23051252#4 23051252#5 35901826 23162040 10070449#0 10070449#1 10070449#2 100152272 27131168#2 61279128 35903052#1 35903052#2 35903052#3 35923003#0 35923003#1 35923003#2 35923003#3"/>
    </routeDistribution>
    <routeDistribution id="062">
        <route edges="-34435272#4 -34435272#3 -34435272#2 -34435272#1 -34435272#0 35772671 35772792 35772520#0 35772520#1 35772577 35836542#4"/>
    </routeDistribution>
    <routeDistribution id="063">
        <route edges="-34435272#4 -34435272#3 -34435272#2 -34435272#1 -34435272#0 -27584441 10022935 34435254 35842748#0 35842748#1 151151441 27617970#1 27618005#0 27618005#1"/>
    </routeDistribution>

    <flow id="1" type="sedan" begin="0.0" route="001" number="79" end="4200" departSpeed="max" departLane="best" />
    <flow id="2" type="sedan" begin="0.0" route="002" number="101" end="4200" departSpeed="max" departLane="best" />
    <flow id="3" type="sedan" begin="0.0" route="003" number="388" end="4200" departSpeed="max" departLane="best" />
    <flow id="4" type="sedan" begin="0.0" route="004" number="10" end="4200" departSpeed="max" departLane="best" />
    <flow id="5" type="sedan" begin="0.0" route="005" number="21" end="4200" departSpeed="max" departLane="best" />
    <flow id="6" type="sedan" begin="0.0" route="006" number="70" end="4200" departSpeed="max" departLane="best" />
    <flow id="7" type="sedan" begin="0.0" route="007" number="117" end="4200" departSpeed="max" departLane="best" />
    <flow id="8" type="sedan" begin="0.0" route="008" number="223" end="4200" departSpeed="max" departLane="best" />
    <flow id="9" type="sedan" begin="0.0" route="009" number="331" end="4200" departSpeed="max" departLane="best" />
    <flow id="10" type="sedan" begin="0.0" route="010" number="26" end="4200" departSpeed="max" departLane="best" />
    <flow id="11" type="sedan" begin="0.0" route="011" number="216" end="4200" departSpeed="max" departLane="best" />
    <flow id="12" type="sedan" begin="0.0" route="012" number="31" end="4200" departSpeed="max" departLane="best" />
    <flow id="13" type="sedan" begin="0.0" route="013" number="45" end="4200" departSpeed="max" departLane="best" />
    <flow id="14" type="sedan" begin="0.0" route="014" number="139" end="4200" departSpeed="max" departLane="best" />
    <flow id="15" type="sedan" begin="0.0" route="015" number="90" end="4200" departSpeed="max" departLane="best" />
    <flow id="16" type="sedan" begin="0.0" route="016" number="25" end="4200" departSpeed="max" departLane="best" />
    <flow id="17" type="sedan" begin="0.0" route="017" number="132" end="4200" departSpeed="max" departLane="best" />
    <flow id="18" type="sedan" begin="0.0" route="018" number="96" end="4200" departSpeed="max" departLane="best" />
    <flow id="19" type="sedan" begin="0.0" route="019" number="17" end="4200" departSpeed="max" departLane="best" />
    <flow id="20" type="sedan" begin="0.0" route="020" number="317" end="4200" departSpeed="max" departLane="best" />
    <flow id="21" type="sedan" begin="0.0" route="021" number="145" end="4200" departSpeed="max" departLane="best" />
    <flow id="22" type="sedan" begin="0.0" route="022" number="39" end="4200" departSpeed="max" departLane="best" />
    <flow id="23" type="sedan" begin="0.0" route="023" number="92" end="4200" departSpeed="max" departLane="best" />
    <flow id="24" type="sedan" begin="0.0" route="024" number="253" end="4200" departSpeed="max" departLane="best" />
    <flow id="25" type="sedan" begin="0.0" route="025" number="30" end="4200" departSpeed="max" departLane="best" />
    <flow id="26" type="sedan" begin="0.0" route="026" number="60" end="4200" departSpeed="max" departLane="best" />
    <flow id="27" type="sedan" begin="0.0" route="027" number="50" end="4200" departSpeed="max" departLane="best" />
    <flow id="28" type="sedan" begin="0.0" route="028" number="170" end="4200" departSpeed="max" departLane="best" />
    <flow id="29" type="sedan" begin="0.0" route="029" number="10" end="4200" departSpeed="max" departLane="best" />
    <flow id="30" type="sedan" begin="0.0" route="030" number="84" end="4200" departSpeed="max" departLane="best" />
    <flow id="31" type="sedan" begin="0.0" route="031" number="10" end="4200" departSpeed="max" departLane="best" />
    <flow id="32" type="sedan" begin="0.0" route="032" number="112" end="4200" departSpeed="max" departLane="best" />
    <flow id="33" type="sedan" begin="0.0" route="033" number="139" end="4200" departSpeed="max" departLane="best" />
    <flow id="34" type="sedan" begin="0.0" route="034" number="218" end="4200" departSpeed="max" departLane="best" />
    <flow id="35" type="sedan" begin="0.0" route="035" number="55" end="4200" departSpeed="max" departLane="best" />
    <flow id="36" type="sedan" begin="0.0" route="036" number="81" end="4200" departSpeed="max" departLane="best" />
    <flow id="37" type="sedan" begin="0.0" route="037" number="44" end="4200" departSpeed="max" departLane="best" />
    <flow id="38" type="sedan" begin="0.0" route="038" number="49" end="4200" departSpeed="max" departLane="best" />
    <flow id="39" type="sedan" begin="0.0" route="039" number="151" end="4200" departSpeed="max" departLane="best" />
    <flow id="40" type="sedan" begin="0.0" route="040" number="31" end="4200" departSpeed="max" departLane="best" />
    <flow id="41" type="sedan" begin="0.0" route="041" number="265" end="4200" departSpeed="max" departLane="best" />
    <flow id="42" type="sedan" begin="0.0" route="042" number="141" end="4200" departSpeed="max" departLane="best" />
    <flow id="43" type="sedan" begin="0.0" route="043" number="10" end="4200" departSpeed="max" departLane="best" />
    <flow id="44" type="sedan" begin="0.0" route="044" number="10" end="4200" departSpeed="max" departLane="best" />
    <flow id="45" type="sedan" begin="0.0" route="045" number="10" end="4200" departSpeed="max" departLane="best" />
    <flow id="46" type="sedan" begin="0.0" route="046" number="138" end="4200" departSpeed="max" departLane="best" />
    <flow id="47" type="sedan" begin="0.0" route="047" number="125" end="4200" departSpeed="max" departLane="best" />
    <flow id="48" type="sedan" begin="0.0" route="048" number="15" end="4200" departSpeed="max" departLane="best" />
    <flow id="49" type="sedan" begin="0.0" route="049" number="10" end="4200" departSpeed="max" departLane="best" />
    <flow id="50" type="sedan" begin="0.0" route="050" number="132" end="4200" departSpeed="max" departLane="best" />
    <flow id="51" type="sedan" begin="0.0" route="051" number="64" end="4200" departSpeed="max" departLane="best" />
    <flow id="52" type="sedan" begin="0.0" route="052" number="10" end="4200" departSpeed="max" departLane="best" />
    <flow id="53" type="sedan" begin="0.0" route="053" number="10" end="4200" departSpeed="max" departLane="best" />
    <flow id="54" type="sedan" begin="0.0" route="054" number="79" end="4200" departSpeed="max" departLane="best" />
    <flow id="55" type="sedan" begin="0.0" route="055" number="92" end="4200" departSpeed="max" departLane="best" />
    <flow id="56" type="sedan" begin="0.0" route="056" number="27" end="4200" departSpeed="max" departLane="best" />
    <flow id="57" type="sedan" begin="0.0" route="057" number="10" end="4200" departSpeed="max" departLane="best" />
    <flow id="58" type="sedan" begin="0.0" route="058" number="97" end="4200" departSpeed="max" departLane="best" />
    <flow id="59" type="sedan" begin="0.0" route="059" number="10" end="4200" departSpeed="max" departLane="best" />
    <flow id="60" type="sedan" begin="0.0" route="060" number="10" end="4200" departSpeed="max" departLane="best" />
    <flow id="61" type="sedan" begin="0.0" route="061" number="45" end="4200" departSpeed="max" departLane="best" />
    <flow id="62" type="sedan" begin="0.0" route="062" number="74" end="4200" departSpeed="max" departLane="best" />
    <flow id="63" type="sedan" begin="0.0" route="063" number="40" end="4200" departSpeed="max" departLane="best" />
</routes>