<?xml version="1.0" encoding="UTF-8"?>

<!-- generated on Fri Feb 26 14:53:34 2016 by SUMO netconvert Version 0.25.0
<?xml version="1.0" encoding="UTF-8"?>

<configuration xmlns:xsi="http://www.w3.org/2001/XMLSchema-instance" xsi:noNamespaceSchemaLocation="http://sumo.dlr.de/xsd/netconvertConfiguration.xsd">

    <input>
        <connection-files value="malaga.con.xml"/>
        <type-files value="malaga.typ.xml"/>
        <osm-files value="malaga.osm"/>
    </input>

    <output>
        <output-file value="malaga.net.xml"/>
        <output.street-names value="true"/>
        <output.original-names value="true"/>
    </output>

    <projection>
        <proj.utm value="true"/>
    </projection>

    <tls_building>
        <tls.guess-signals value="true"/>
    </tls_building>

    <ramp_guessing>
        <ramps.guess value="true"/>
        <ramps.ramp-length value="25"/>
    </ramp_guessing>

    <edge_removal>
        <remove-edges.isolated value="true"/>
    </edge_removal>

    <processing>
        <osm.elevation value="true"/>
        <no-turnarounds value="true"/>
        <geometry.remove value="true"/>
        <junctions.join value="true"/>
        <junctions.join-dist value="2"/>
        <junctions.join-exclude value="349306677,349306712,349306719,746325897,1001844,418221294,-84017,1777568746,418221395"/>
        <check-lane-foes.all value="true"/>
    </processing>

</configuration>
-->

<net version="0.25" xmlns:xsi="http://www.w3.org/2001/XMLSchema-instance" xsi:noNamespaceSchemaLocation="http://sumo.dlr.de/xsd/net_file.xsd">

    <location netOffset="-372606.86,-4063402.77" convBoundary="0.00,0.00,1770.43,2137.59" origBoundary="-4.426373,36.707913,-4.406682,36.727173" projParameter="+proj=utm +zone=30 +ellps=WGS84 +datum=WGS84 +units=m +no_defs"/>

    <type id="highway.bridleway" priority="2" numLanes="1" speed="6.94" allow="bicycle pedestrian"/>
    <type id="highway.bus_guideway" priority="5" numLanes="1" speed="13.89" allow="bus"/>
    <type id="highway.cycleway" priority="2" numLanes="1" speed="6.94" allow="bicycle"/>
    <type id="highway.footway" priority="2" numLanes="1" speed="1.39" allow="pedestrian"/>
    <type id="highway.living_street" priority="6" numLanes="1" speed="1.39"/>
    <type id="highway.motorway" priority="13" numLanes="3" speed="33.33" disallow="bicycle pedestrian" oneway="1"/>
    <type id="highway.motorway_link" priority="11" numLanes="1" speed="16.67"/>
    <type id="highway.path" priority="2" numLanes="1" speed="6.94" allow="bicycle pedestrian"/>
    <type id="highway.pedestrian" priority="5" numLanes="1" speed="1.39" allow="pedestrian"/>
    <type id="highway.primary" priority="11" numLanes="2" speed="13.89"/>
    <type id="highway.primary_link" priority="8" numLanes="3" speed="13.89"/>
    <type id="highway.residential" priority="6" numLanes="1" speed="8.33"/>
    <type id="highway.road" priority="7" numLanes="1" speed="13.89"/>
    <type id="highway.secondary" priority="10" numLanes="2" speed="13.89"/>
    <type id="highway.secondary_link" priority="8" numLanes="2" speed="13.89"/>
    <type id="highway.service" priority="5" numLanes="1" speed="13.89"/>
    <type id="highway.steps" priority="2" numLanes="1" speed="1.39" allow="pedestrian"/>
    <type id="highway.tertiary" priority="9" numLanes="2" speed="11.11"/>
    <type id="highway.track" priority="4" numLanes="1" speed="8.33" allow="bicycle pedestrian"/>
    <type id="highway.trunk" priority="8" numLanes="1" speed="11.11"/>
    <type id="highway.trunk_link" priority="8" numLanes="1" speed="13.89"/>
    <type id="highway.unclassified" priority="8" numLanes="1" speed="13.89"/>
    <type id="railway.funicular" priority="7" numLanes="1" speed="16.67" allow="rail_urban"/>
    <type id="railway.light_rail" priority="7" numLanes="1" speed="33.33" allow="tram"/>
    <type id="railway.monorail" priority="7" numLanes="1" speed="16.67" allow="tram"/>
    <type id="railway.narrow_gauge" priority="7" numLanes="1" speed="33.33" allow="tram"/>
    <type id="railway.preserved" priority="7" numLanes="1" speed="8.33" allow="tram"/>
    <type id="railway.rail" priority="7" numLanes="1" speed="22.22" allow="rail_electric"/>
    <type id="railway.subway" priority="7" numLanes="1" speed="22.22" allow="rail_urban"/>
    <type id="railway.tram" priority="7" numLanes="1" speed="16.67" allow="rail_urban"/>

    <edge id=":-118_0" function="internal">
        <lane id=":-118_0_0" index="0" speed="11.11" length="15.32" shape="1064.10,671.25 1066.87,674.96 1068.82,677.46 1070.60,680.07 1072.82,684.10"/>
        <lane id=":-118_0_1" index="1" speed="11.11" length="15.32" shape="1061.41,673.17 1064.10,676.76 1066.00,679.18 1067.73,681.71 1069.89,685.61"/>
    </edge>
    <edge id=":-118_2" function="internal">
        <lane id=":-118_2_0" index="0" speed="11.11" length="15.40" shape="1058.64,677.11 1063.35,677.25 1067.28,678.46 1070.44,680.75 1072.82,684.10"/>
        <lane id=":-118_2_1" index="1" speed="11.11" length="15.40" shape="1058.27,677.84 1069.89,685.61"/>
    </edge>
    <edge id=":-122_0" function="internal">
        <lane id=":-122_0_0" index="0" speed="11.11" length="5.15" shape="1048.05,678.46 1048.04,673.64"/>
        <lane id=":-122_0_1" index="1" speed="11.11" length="5.15" shape="1051.11,679.70 1051.29,674.22"/>
    </edge>
    <edge id=":-122_2" function="internal">
        <lane id=":-122_2_0" index="0" speed="11.11" length="5.62" shape="1051.11,679.70 1051.67,678.78 1052.52,678.09 1053.65,677.62 1055.07,677.39"/>
        <lane id=":-122_2_1" index="1" speed="11.11" length="5.62" shape="1051.11,679.70 1051.28,680.26 1052.32,680.58 1054.25,680.68 1057.05,680.54"/>
    </edge>
    <edge id=":-136_0" function="internal">
        <lane id=":-136_0_0" index="0" speed="11.11" length="6.92" shape="1063.05,712.04 1062.38,710.99 1061.51,710.30 1060.46,709.99 1059.20,710.05"/>
        <lane id=":-136_0_1" index="1" speed="11.11" length="6.92" shape="1066.05,710.67 1064.75,708.62 1063.08,707.29 1061.03,706.68 1058.61,706.80"/>
    </edge>
    <edge id=":-136_2" function="internal">
        <lane id=":-136_2_0" index="0" speed="11.11" length="7.19" shape="1072.54,703.11 1071.81,704.10 1071.49,705.23 1071.57,706.50 1072.04,707.91"/>
        <lane id=":-136_2_1" index="1" speed="11.11" length="7.19" shape="1070.21,700.77 1068.83,702.61 1068.18,704.64 1068.25,706.86 1069.04,709.29"/>
    </edge>
    <edge id=":-136_4" function="internal">
        <lane id=":-136_4_0" index="0" speed="11.11" length="13.43" shape="1070.21,700.77 1067.35,703.49 1065.08,705.07 1062.48,706.01 1058.61,706.80"/>
    </edge>
    <edge id=":-24_0" function="internal">
        <lane id=":-24_0_0" index="0" speed="13.89" length="4.65" shape="1468.70,1160.95 1464.67,1162.79"/>
        <lane id=":-24_0_1" index="1" speed="13.89" length="4.65" shape="1466.89,1158.19 1462.50,1160.29"/>
    </edge>
    <edge id=":-24_2" function="internal">
        <lane id=":-24_2_0" index="0" speed="11.11" length="5.18" shape="1458.18,1155.31 1460.09,1150.49"/>
    </edge>
    <edge id=":-24_3" function="internal">
        <lane id=":-24_3_0" index="0" speed="13.89" length="5.52" shape="1458.18,1155.31 1463.27,1152.67"/>
        <lane id=":-24_3_1" index="1" speed="13.89" length="5.52" shape="1460.34,1157.80 1465.08,1155.43"/>
    </edge>
    <edge id=":-32_0" function="internal">
        <lane id=":-32_0_0" index="0" speed="8.33" length="5.18" shape="1222.01,890.72 1220.74,891.43 1220.06,892.35 1219.98,893.48 1220.49,894.84"/>
    </edge>
    <edge id=":-32_1" function="internal">
        <lane id=":-32_1_0" index="0" speed="8.33" length="5.20" shape="1216.17,893.45 1217.45,892.96 1218.60,893.03 1219.62,893.65 1220.49,894.84"/>
    </edge>
    <edge id=":-48_0" function="internal">
        <lane id=":-48_0_0" index="0" speed="11.11" length="5.00" shape="1451.87,1085.51 1455.38,1089.07"/>
        <lane id=":-48_0_1" index="1" speed="11.11" length="5.00" shape="1449.52,1087.83 1453.04,1091.39"/>
    </edge>
    <edge id=":-48_2" function="internal">
        <lane id=":-48_2_0" index="0" speed="9.72" length="5.57" shape="1449.52,1087.83 1449.84,1093.39"/>
    </edge>
    <edge id=":-50_0" function="internal">
        <lane id=":-50_0_0" index="0" speed="8.33" length="5.97" shape="1436.59,1160.09 1435.15,1158.87 1433.80,1158.04 1432.54,1157.60 1431.37,1157.55"/>
    </edge>
    <edge id=":-50_1" function="internal">
        <lane id=":-50_1_0" index="0" speed="8.33" length="6.33" shape="1437.48,1155.88 1431.37,1157.55"/>
    </edge>
    <edge id=":-52_0" function="internal">
        <lane id=":-52_0_0" index="0" speed="8.33" length="5.06" shape="1364.59,1079.03 1362.16,1074.59"/>
    </edge>
    <edge id=":-52_1" function="internal">
        <lane id=":-52_1_0" index="0" speed="8.33" length="4.96" shape="1364.59,1079.03 1364.61,1077.89 1364.94,1076.79 1365.58,1075.71 1366.54,1074.67"/>
    </edge>
    <edge id=":-54_0" function="internal">
        <lane id=":-54_0_0" index="0" speed="8.33" length="5.02" shape="1294.53,1072.63 1293.22,1073.04 1292.35,1073.77 1291.95,1074.83 1291.99,1076.21"/>
    </edge>
    <edge id=":-54_1" function="internal">
        <lane id=":-54_1_0" index="0" speed="8.33" length="6.20" shape="1290.91,1070.10 1291.99,1076.21"/>
    </edge>
    <edge id=":-56_0" function="internal">
        <lane id=":-56_0_0" index="0" speed="8.33" length="10.14" shape="1276.34,996.14 1277.74,998.78 1278.54,1000.70 1279.05,1002.71 1279.59,1005.66"/>
    </edge>
    <edge id=":-56_1" function="internal">
        <lane id=":-56_1_0" index="0" speed="8.33" length="8.62" shape="1276.34,996.14 1277.46,998.73 1277.73,1000.86 1277.14,1002.52 1275.68,1003.73"/>
    </edge>
    <edge id=":-56_2" function="internal">
        <lane id=":-56_2_0" index="0" speed="8.33" length="8.82" shape="1274.17,1000.79 1276.08,1000.29 1277.62,1000.93 1278.79,1002.72 1279.59,1005.66"/>
    </edge>
    <edge id=":-60_0" function="internal">
        <lane id=":-60_0_0" index="0" speed="8.33" length="6.38" shape="1379.74,1164.19 1378.43,1164.65 1377.59,1165.66 1377.21,1167.20 1377.29,1169.28"/>
    </edge>
    <edge id=":-60_1" function="internal">
        <lane id=":-60_1_0" index="0" speed="8.33" length="8.01" shape="1379.74,1164.19 1372.19,1166.83"/>
    </edge>
    <edge id=":-60_2" function="internal">
        <lane id=":-60_2_0" index="0" speed="8.33" length="7.64" shape="1379.74,1164.19 1377.64,1164.16 1376.06,1163.47 1375.00,1162.11 1374.45,1160.09"/>
    </edge>
    <edge id=":-60_3" function="internal">
        <lane id=":-60_3_0" index="0" speed="8.33" length="4.99" shape="1371.76,1163.55 1373.08,1163.19 1373.97,1162.49 1374.42,1161.46 1374.45,1160.09"/>
    </edge>
    <edge id=":-60_4" function="internal">
        <lane id=":-60_4_0" index="0" speed="8.33" length="9.01" shape="1371.76,1163.55 1373.86,1163.68 1375.48,1164.68 1376.63,1166.55 1377.29,1169.28"/>
    </edge>
    <edge id=":-64_0" function="internal">
        <lane id=":-64_0_0" index="0" speed="8.33" length="5.09" shape="1308.01,1178.41 1307.71,1177.03 1307.03,1176.12 1305.99,1175.66 1304.58,1175.67"/>
    </edge>
    <edge id=":-64_1" function="internal">
        <lane id=":-64_1_0" index="0" speed="8.33" length="10.40" shape="1308.01,1178.41 1308.18,1175.49 1309.17,1173.30 1310.98,1171.83 1313.61,1171.07"/>
    </edge>
    <edge id=":-64_2" function="internal">
        <lane id=":-64_2_0" index="0" speed="8.33" length="5.29" shape="1314.04,1174.35 1312.75,1174.73 1311.86,1175.49 1311.38,1176.64 1311.30,1178.16"/>
    </edge>
    <edge id=":-64_3" function="internal">
        <lane id=":-64_3_0" index="0" speed="8.33" length="9.55" shape="1314.04,1174.35 1304.58,1175.67"/>
    </edge>
    <edge id=":-64_4" function="internal">
        <lane id=":-64_4_0" index="0" speed="8.33" length="6.42" shape="1308.45,1168.58 1308.97,1169.89 1310.01,1170.75 1311.56,1171.14 1313.61,1171.07"/>
    </edge>
    <edge id=":-64_5" function="internal">
        <lane id=":-64_5_0" index="0" speed="8.33" length="10.05" shape="1308.45,1168.58 1309.21,1171.45 1310.06,1173.35 1310.82,1175.25 1311.30,1178.16"/>
    </edge>
    <edge id=":-64_6" function="internal">
        <lane id=":-64_6_0" index="0" speed="8.33" length="9.23" shape="1308.45,1168.58 1308.63,1171.40 1308.04,1173.52 1306.70,1174.95 1304.58,1175.67"/>
    </edge>
    <edge id=":-64_7" function="internal">
        <lane id=":-64_7_0" index="0" speed="8.33" length="9.61" shape="1304.09,1172.41 1313.61,1171.07"/>
    </edge>
    <edge id=":-64_8" function="internal">
        <lane id=":-64_8_0" index="0" speed="8.33" length="10.71" shape="1304.09,1172.41 1307.06,1172.39 1309.25,1173.34 1310.66,1175.27 1311.30,1178.16"/>
    </edge>
    <edge id=":1001814_0" function="internal">
        <lane id=":1001814_0_0" index="0" speed="13.89" length="0.10" shape="1049.42,1317.86 1049.42,1317.86"/>
        <lane id=":1001814_0_1" index="1" speed="13.89" length="0.10" shape="1048.38,1321.00 1048.38,1321.00"/>
    </edge>
    <edge id=":1001816_0" function="internal">
        <lane id=":1001816_0_0" index="0" speed="13.89" length="0.10" shape="1045.01,1328.81 1045.00,1328.81"/>
        <lane id=":1001816_0_1" index="1" speed="13.89" length="0.10" shape="1046.04,1325.68 1046.05,1325.68"/>
    </edge>
    <edge id=":1001818_0" function="internal">
        <lane id=":1001818_0_0" index="0" speed="13.89" length="0.10" shape="946.46,1283.59 946.46,1283.59"/>
        <lane id=":1001818_0_1" index="1" speed="13.89" length="0.10" shape="945.41,1286.72 945.41,1286.72"/>
    </edge>
    <edge id=":1001820_0" function="internal">
        <lane id=":1001820_0_0" index="0" speed="13.89" length="0.10" shape="941.95,1294.47 941.96,1294.47"/>
        <lane id=":1001820_0_1" index="1" speed="13.89" length="0.10" shape="942.99,1291.34 942.99,1291.34"/>
    </edge>
    <edge id=":1001822_0" function="internal">
        <lane id=":1001822_0_0" index="0" speed="13.89" length="0.10" shape="784.32,1229.74 784.32,1229.73"/>
        <lane id=":1001822_0_1" index="1" speed="13.89" length="0.10" shape="783.27,1232.86 783.28,1232.87"/>
    </edge>
    <edge id=":1001824_0" function="internal">
        <lane id=":1001824_0_0" index="0" speed="13.89" length="0.10" shape="780.67,1241.33 780.66,1241.33"/>
        <lane id=":1001824_0_1" index="1" speed="13.89" length="0.10" shape="781.70,1238.20 781.71,1238.20"/>
    </edge>
    <edge id=":10056348_0" function="internal">
        <lane id=":10056348_0_0" index="0" speed="9.72" length="6.55" shape="598.24,1200.44 601.21,1206.28"/>
    </edge>
    <edge id=":10056348_1" function="internal">
        <lane id=":10056348_1_0" index="0" speed="11.11" length="6.49" shape="593.96,1206.85 594.94,1200.44"/>
    </edge>
    <edge id=":10074_0" function="internal">
        <lane id=":10074_0_0" index="0" speed="13.89" length="11.35" shape="253.79,1064.36 250.61,1063.29 248.42,1062.57 246.24,1061.87 243.03,1060.85"/>
        <lane id=":10074_0_1" index="1" speed="13.89" length="11.35" shape="254.84,1061.24 251.64,1060.16 249.45,1059.43 247.25,1058.73 244.03,1057.71"/>
    </edge>
    <edge id=":10074_2" function="internal">
        <lane id=":10074_2_0" index="0" speed="13.89" length="17.33" shape="255.29,1050.92 252.99,1055.44 251.44,1058.55 249.94,1061.68 247.78,1066.27"/>
        <lane id=":10074_2_1" index="1" speed="13.89" length="17.33" shape="255.29,1050.92 252.50,1055.27 249.95,1057.85 247.44,1060.45 244.79,1064.87"/>
    </edge>
    <edge id=":10074_4" function="internal">
        <lane id=":10074_4_0" index="0" speed="13.89" length="12.44" shape="252.35,1049.42 250.03,1053.47 247.87,1056.20 245.87,1057.61 244.03,1057.71"/>
    </edge>
    <edge id=":10074_5" function="internal">
        <lane id=":10074_5_0" index="0" speed="13.89" length="11.47" shape="246.01,1051.41 249.27,1052.44 251.49,1053.16 253.71,1053.89 256.95,1054.98"/>
        <lane id=":10074_5_1" index="1" speed="13.89" length="11.47" shape="245.02,1054.56 248.26,1055.59 250.47,1056.30 252.68,1057.03 255.90,1058.11"/>
    </edge>
    <edge id=":1103187320_0" function="internal">
        <lane id=":1103187320_0_0" index="0" speed="11.11" length="6.67" shape="1247.78,875.54 1252.59,880.25"/>
        <lane id=":1103187320_0_1" index="1" speed="11.11" length="6.67" shape="1245.50,877.92 1250.22,882.54"/>
    </edge>
    <edge id=":1103187320_2" function="internal">
        <lane id=":1103187320_2_0" index="0" speed="9.72" length="5.66" shape="1245.50,877.92 1246.54,879.23 1246.74,880.37 1246.11,881.34 1244.64,882.14"/>
    </edge>
    <edge id=":1103187413_0" function="internal">
        <lane id=":1103187413_0_0" index="0" speed="11.11" length="3.13" shape="1127.23,836.75 1126.16,834.67"/>
        <lane id=":1103187413_0_1" index="1" speed="11.11" length="3.13" shape="1127.23,836.75 1129.18,833.35"/>
    </edge>
    <edge id=":1487934957_0" function="internal">
        <lane id=":1487934957_0_0" index="0" speed="13.89" length="0.36" shape="97.43,1548.67 97.60,1548.67"/>
        <lane id=":1487934957_0_1" index="1" speed="13.89" length="0.36" shape="97.08,1551.95 97.62,1551.97"/>
    </edge>
    <edge id=":1487934996_0" function="internal">
        <lane id=":1487934996_0_0" index="0" speed="13.89" length="0.10" shape="104.68,1856.08 104.68,1856.05"/>
        <lane id=":1487934996_0_1" index="1" speed="13.89" length="0.10" shape="101.38,1855.92 101.38,1855.93"/>
    </edge>
    <edge id=":1487935006_0" function="internal">
        <lane id=":1487935006_0_0" index="0" speed="11.11" length="5.01" shape="103.12,1910.53 103.28,1911.89 103.83,1912.87 104.79,1913.49 106.15,1913.73"/>
    </edge>
    <edge id=":1487935006_1" function="internal">
        <lane id=":1487935006_1_0" index="0" speed="13.89" length="6.19" shape="103.12,1910.53 102.94,1916.72"/>
        <lane id=":1487935006_1_1" index="1" speed="13.89" length="6.19" shape="99.82,1910.44 99.64,1916.62"/>
    </edge>
    <edge id=":1487935007_0" function="internal">
        <lane id=":1487935007_0_0" index="0" speed="8.33" length="6.22" shape="143.81,1915.20 150.02,1915.45"/>
    </edge>
    <edge id=":1487935007_1" function="internal">
        <lane id=":1487935007_1_0" index="0" speed="8.33" length="5.12" shape="143.81,1915.20 145.21,1915.46 146.14,1916.11 146.61,1917.14 146.62,1918.57"/>
    </edge>
    <edge id=":1487935040_0" function="internal">
        <lane id=":1487935040_0_0" index="0" speed="11.11" length="5.01" shape="99.27,2014.50 97.90,2014.59 96.89,2015.09 96.23,2016.01 95.94,2017.35"/>
    </edge>
    <edge id=":1487935040_1" function="internal">
        <lane id=":1487935040_1_0" index="0" speed="13.89" length="6.20" shape="96.41,2011.17 95.94,2017.35"/>
        <lane id=":1487935040_1_1" index="1" speed="13.89" length="6.20" shape="93.12,2010.92 92.65,2017.10"/>
    </edge>
    <edge id=":1487935041_0" function="internal">
        <lane id=":1487935041_0_0" index="0" speed="8.33" length="6.10" shape="134.35,2017.59 128.29,2016.89"/>
    </edge>
    <edge id=":1487935041_1" function="internal">
        <lane id=":1487935041_1_0" index="0" speed="8.33" length="5.05" shape="131.79,2014.03 131.36,2015.37 130.64,2016.30 129.61,2016.80 128.29,2016.89"/>
    </edge>
    <edge id=":1487935044_0" function="internal">
        <lane id=":1487935044_0_0" index="0" speed="8.33" length="6.05" shape="229.72,2032.28 223.78,2031.08"/>
    </edge>
    <edge id=":1487935044_1" function="internal">
        <lane id=":1487935044_1_0" index="0" speed="8.33" length="4.96" shape="227.40,2028.57 226.93,2029.84 226.18,2030.68 225.13,2031.10 223.78,2031.08"/>
    </edge>
    <edge id=":1487935050_0" function="internal">
        <lane id=":1487935050_0_0" index="0" speed="8.33" length="5.25" shape="295.86,2052.28 296.29,2050.86 296.12,2049.73 295.35,2048.89 293.98,2048.33"/>
    </edge>
    <edge id=":1487935050_1" function="internal">
        <lane id=":1487935050_1_0" index="0" speed="8.33" length="6.26" shape="295.86,2052.28 298.52,2046.61"/>
    </edge>
    <edge id=":1628306455_0" function="internal">
        <lane id=":1628306455_0_0" index="0" speed="11.11" length="4.93" shape="82.26,890.61 80.93,890.41 79.84,890.67 78.98,891.39 78.35,892.57"/>
    </edge>
    <edge id=":1628306455_1" function="internal">
        <lane id=":1628306455_1_0" index="0" speed="8.33" length="6.81" shape="78.30,883.33 78.62,884.59 79.54,885.69 81.07,886.65 83.20,887.45"/>
    </edge>
    <edge id=":1628306455_2" function="internal">
        <lane id=":1628306455_2_0" index="0" speed="11.11" length="8.67" shape="78.30,883.33 75.25,891.44"/>
    </edge>
    <edge id=":1628306455_3" function="internal">
        <lane id=":1628306455_3_0" index="0" speed="9.72" length="9.27" shape="74.06,885.91 83.20,887.45"/>
    </edge>
    <edge id=":1628339370_0" function="internal">
        <lane id=":1628339370_0_0" index="0" speed="12.50" length="12.61" shape="442.62,1099.44 445.43,1101.64 447.25,1103.38 449.21,1104.81 452.46,1106.06"/>
        <lane id=":1628339370_0_1" index="1" speed="12.50" length="12.61" shape="440.60,1102.07 443.72,1104.47 445.76,1106.35 447.95,1107.87 451.56,1109.23"/>
    </edge>
    <edge id=":1628339370_2" function="internal">
        <lane id=":1628339370_2_0" index="0" speed="13.89" length="12.81" shape="439.37,1105.97 443.27,1105.39 445.99,1105.04 448.67,1105.18 452.46,1106.06"/>
        <lane id=":1628339370_2_1" index="1" speed="13.89" length="12.81" shape="439.35,1109.30 442.99,1108.74 445.52,1108.36 448.03,1108.44 451.56,1109.23"/>
    </edge>
    <edge id=":1628378034_0" function="internal">
        <lane id=":1628378034_0_0" index="0" speed="13.89" length="5.50" shape="415.00,888.80 412.39,893.13"/>
        <lane id=":1628378034_0_1" index="1" speed="13.89" length="5.50" shape="412.51,886.62 409.42,891.69"/>
    </edge>
    <edge id=":1628378034_2" function="internal">
        <lane id=":1628378034_2_0" index="0" speed="11.11" length="5.19" shape="407.68,887.67 408.99,888.30 409.72,889.18 409.86,890.31 409.42,891.69"/>
    </edge>
    <edge id=":1628918957_0" function="internal">
        <lane id=":1628918957_0_0" index="0" speed="12.50" length="23.34" shape="118.02,1278.87 117.71,1285.23 116.80,1290.22 116.10,1295.19 116.38,1301.50"/>
        <lane id=":1628918957_0_1" index="1" speed="12.50" length="23.34" shape="114.70,1278.17 114.39,1284.71 113.51,1290.10 112.82,1295.47 113.11,1301.96"/>
    </edge>
    <edge id=":1628918957_2" function="internal">
        <lane id=":1628918957_2_0" index="0" speed="13.89" length="23.71" shape="111.24,1278.23 112.79,1284.58 114.13,1289.81 115.31,1295.06 116.38,1301.50"/>
        <lane id=":1628918957_2_1" index="1" speed="13.89" length="23.71" shape="108.03,1278.96 109.57,1285.28 110.89,1290.40 112.05,1295.56 113.11,1301.96"/>
    </edge>
    <edge id=":1760594390_0" function="internal">
        <lane id=":1760594390_0_0" index="0" speed="8.33" length="6.13" shape="1399.42,1318.62 1393.35,1319.45"/>
    </edge>
    <edge id=":1760594390_1" function="internal">
        <lane id=":1760594390_1_0" index="0" speed="8.33" length="4.98" shape="1395.95,1315.92 1395.95,1317.28 1395.52,1318.32 1394.65,1319.04 1393.35,1319.45"/>
    </edge>
    <edge id=":1777568712_0" function="internal">
        <lane id=":1777568712_0_0" index="0" speed="13.89" length="22.25" shape="1243.31,1425.27 1238.75,1421.16 1235.06,1418.39 1231.29,1415.41 1226.49,1410.64"/>
        <lane id=":1777568712_0_1" index="1" speed="13.89" length="22.25" shape="1245.64,1422.94 1241.09,1418.84 1237.43,1416.09 1233.69,1413.14 1228.93,1408.41"/>
    </edge>
    <edge id=":1777568712_2" function="internal">
        <lane id=":1777568712_2_0" index="0" speed="13.89" length="22.81" shape="1247.92,1419.34 1240.81,1418.73 1235.81,1417.79 1231.50,1415.45 1226.49,1410.64"/>
        <lane id=":1777568712_2_1" index="1" speed="13.89" length="22.81" shape="1249.41,1416.17 1242.65,1415.67 1237.84,1414.94 1233.71,1412.90 1228.93,1408.41"/>
        <lane id=":1777568712_2_2" index="2" speed="13.89" length="22.81" shape="1250.89,1412.99 1244.48,1412.60 1239.88,1412.10 1235.91,1410.34 1231.37,1406.19"/>
    </edge>
    <edge id=":1777568718_0" function="internal">
        <lane id=":1777568718_0_0" index="0" speed="13.89" length="1.84" shape="1265.23,1360.90 1267.72,1362.72"/>
        <lane id=":1777568718_0_1" index="1" speed="13.89" length="1.84" shape="1263.81,1363.88 1265.30,1364.97"/>
        <lane id=":1777568718_0_2" index="2" speed="13.89" length="1.84" shape="1262.40,1366.87 1262.89,1367.22"/>
    </edge>
    <edge id=":1777568730_0" function="internal">
        <lane id=":1777568730_0_0" index="0" speed="13.89" length="1.52" shape="1219.24,1375.38 1220.51,1373.19"/>
        <lane id=":1777568730_0_1" index="1" speed="13.89" length="1.52" shape="1222.32,1376.57 1223.08,1375.26"/>
        <lane id=":1777568730_0_2" index="2" speed="13.89" length="1.52" shape="1225.40,1377.76 1225.65,1377.33"/>
    </edge>
    <edge id=":1777568738_0" function="internal">
        <lane id=":1777568738_0_0" index="0" speed="11.11" length="9.50" shape="1278.14,1401.34 1278.78,1410.41"/>
        <lane id=":1777568738_0_1" index="1" speed="11.11" length="9.50" shape="1278.14,1401.34 1275.52,1410.89"/>
    </edge>
    <edge id=":1777568738_2" function="internal">
        <lane id=":1777568738_2_0" index="0" speed="13.89" length="9.46" shape="1274.94,1400.54 1271.09,1409.75"/>
        <lane id=":1777568738_2_1" index="1" speed="13.89" length="9.46" shape="1271.74,1399.75 1268.04,1408.00"/>
        <lane id=":1777568738_2_2" index="2" speed="13.89" length="9.46" shape="1271.74,1399.75 1264.99,1406.24"/>
    </edge>
    <edge id=":1777568742_0" function="internal">
        <lane id=":1777568742_0_0" index="0" speed="13.89" length="5.29" shape="1180.71,1487.83 1176.14,1490.66"/>
        <lane id=":1777568742_0_1" index="1" speed="13.89" length="5.29" shape="1179.53,1484.75 1175.12,1487.52"/>
    </edge>
    <edge id=":1777568742_2" function="internal">
        <lane id=":1777568742_2_0" index="0" speed="11.11" length="6.51" shape="1173.10,1481.24 1173.57,1480.74 1174.03,1479.55 1174.49,1477.67 1174.95,1475.09"/>
    </edge>
    <edge id=":1777568742_3" function="internal">
        <lane id=":1777568742_3_0" index="0" speed="13.89" length="4.96" shape="1173.10,1481.24 1177.18,1478.58"/>
        <lane id=":1777568742_3_1" index="1" speed="13.89" length="4.96" shape="1174.11,1484.38 1178.36,1481.66"/>
    </edge>
    <edge id=":1777568746_0" function="internal">
        <lane id=":1777568746_0_0" index="0" speed="13.89" length="5.45" shape="1223.28,1470.98 1218.26,1472.74"/>
        <lane id=":1777568746_0_1" index="1" speed="13.89" length="5.45" shape="1222.30,1467.83 1217.04,1469.67"/>
    </edge>
    <edge id=":1777568746_2" function="internal">
        <lane id=":1777568746_2_0" index="0" speed="11.11" length="5.00" shape="1216.46,1459.49 1217.05,1460.73 1217.89,1461.48 1218.99,1461.75 1220.34,1461.53"/>
    </edge>
    <edge id=":1777568746_3" function="internal">
        <lane id=":1777568746_3_0" index="0" speed="11.11" length="10.68" shape="1216.46,1459.49 1217.58,1463.60 1218.05,1466.67 1217.87,1468.69 1217.04,1469.67"/>
    </edge>
    <edge id=":1777568746_4" function="internal">
        <lane id=":1777568746_4_0" index="0" speed="13.89" length="5.95" shape="1214.60,1463.54 1220.34,1461.53"/>
        <lane id=":1777568746_4_1" index="1" speed="13.89" length="5.95" shape="1215.82,1466.61 1221.32,1464.68"/>
    </edge>
    <edge id=":1777568758_0" function="internal">
        <lane id=":1777568758_0_0" index="0" speed="13.89" length="12.27" shape="1280.33,1383.86 1280.76,1387.30 1280.98,1389.68 1281.41,1392.01 1282.48,1395.28"/>
        <lane id=":1777568758_0_1" index="1" speed="13.89" length="12.27" shape="1280.33,1383.86 1280.29,1387.62 1279.40,1390.27 1278.74,1392.86 1279.39,1396.44"/>
    </edge>
    <edge id=":1777568758_2" function="internal">
        <lane id=":1777568758_2_0" index="0" speed="13.89" length="6.97" shape="1277.07,1384.37 1278.04,1387.98 1279.13,1390.45 1279.76,1392.90 1279.36,1396.45"/>
        <lane id=":1777568758_2_1" index="1" speed="13.89" length="6.97" shape="1273.81,1384.89 1277.21,1388.55"/>
        <lane id=":1777568758_2_2" index="2" speed="13.89" length="6.97" shape="1273.81,1384.89 1273.93,1388.26"/>
    </edge>
    <edge id=":248606010_0" function="internal">
        <lane id=":248606010_0_0" index="0" speed="13.89" length="8.49" shape="602.21,1072.46 608.64,1076.82"/>
        <lane id=":248606010_0_1" index="1" speed="13.89" length="8.49" shape="599.66,1074.55 607.21,1079.80"/>
    </edge>
    <edge id=":248606010_2" function="internal">
        <lane id=":248606010_2_0" index="0" speed="12.50" length="7.42" shape="599.66,1074.55 601.42,1076.88 602.61,1078.85 603.23,1080.46 603.28,1081.71"/>
        <lane id=":248606010_2_1" index="1" speed="12.50" length="7.42" shape="599.66,1074.55 600.22,1075.61 600.48,1077.04 600.42,1078.84 600.06,1081.00"/>
    </edge>
    <edge id=":248606019_0" function="internal">
        <lane id=":248606019_0_0" index="0" speed="12.50" length="5.32" shape="607.81,1095.16 606.31,1094.98 605.22,1095.36 604.56,1096.30 604.32,1097.79"/>
    </edge>
    <edge id=":248606019_1" function="internal">
        <lane id=":248606019_1_0" index="0" speed="13.89" length="16.18" shape="607.81,1095.16 603.03,1093.88 599.80,1092.82 596.75,1091.34 592.53,1088.79"/>
        <lane id=":248606019_1_1" index="1" speed="13.89" length="16.18" shape="608.67,1091.98 604.17,1090.77 601.13,1089.78 598.26,1088.40 594.29,1086.00"/>
    </edge>
    <edge id=":248606019_3" function="internal">
        <lane id=":248606019_3_0" index="0" speed="11.11" length="12.82" shape="602.42,1085.60 602.17,1089.18 602.92,1091.64 603.88,1094.13 604.32,1097.79"/>
        <lane id=":248606019_3_1" index="1" speed="11.11" length="12.82" shape="599.20,1084.89 598.91,1088.66 599.63,1091.25 600.59,1093.88 601.02,1097.73"/>
    </edge>
    <edge id=":248606019_5" function="internal">