<?xml version="1.0" encoding="UTF-8"?>
<additional> <!-- xmlns:xsi="http://www.w3.org/2001/XMLSchema-instance"
   xsi:noNamespaceSchemaLocation="http://sumo.sf.net/xsd/additional_file.xsd">-->

    <tlLogic id="418221294" type="static" programID="1" offset="0">
        <phase duration="31" state="GGrrrrGG"/>
        <phase duration="4" state="yyrrrryy"/>
        <phase duration="12" state="rrGGrrrr"/>
        <phase duration="4" state="rryyrrrr"/>
        <phase duration="31" state="rrrrGGrr"/>
        <phase duration="4" state="rrrryyrr"/>
    </tlLogic>
<!--    <tlLogic id="418991906" type="static" programID="1" offset="35">
        <phase duration="31" state="GGGrrG"/>
        <phase duration="4" state="yyyrry"/>
        <phase duration="31" state="rrrGGG"/>
        <phase duration="4" state="rrryyy"/>
    </tlLogic>-->
<!--    <tlLogic id="1279322080" type="static" programID="1" offset="35">
        <phase duration="31" state="GGGrrG"/>
        <phase duration="4" state="yyyrry"/>
        <phase duration="31" state="rrrGGG"/>
        <phase duration="4" state="rrryyy"/>
    </tlLogic>-->
<!--    <tlLogic id="316871956" type="static" programID="1" offset="34">
        <phase duration="31" state="GGrrr"/>
        <phase duration="3" state="yyrrr"/>
        <phase duration="31" state="rrGGG"/>
        <phase duration="3" state="rryyy"/>
    </tlLogic>-->
<!--    <tlLogic id="299008067" type="static" programID="1" offset="35">
        <phase duration="31" state="GGGrr"/>
        <phase duration="4" state="yyyrr"/>
        <phase duration="31" state="GrrGG"/>
        <phase duration="4" state="yrryy"/>
    </tlLogic>-->
<!--    <tlLogic id="1279325312" type="static" programID="1" offset="35">
        <phase duration="31" state="GGGrr"/>
        <phase duration="4" state="yyyrr"/>
        <phase duration="31" state="GrrGG"/>
        <phase duration="4" state="yrryy"/>
    </tlLogic>-->
<!--    <tlLogic id="418991627" type="static" programID="1" offset="35">
        <phase duration="31" state="GGGrr"/>
        <phase duration="4" state="yyyrr"/>
        <phase duration="31" state="rrrGG"/>
        <phase duration="4" state="rrryy"/>
    </tlLogic>-->
<!--    <tlLogic id="331530436" type="static" programID="1" offset="35">
        <phase duration="31" state="GGrr"/>
        <phase duration="4" state="yyrr"/>
        <phase duration="31" state="rGGG"/>
        <phase duration="4" state="ryyy"/>
    </tlLogic>-->
    <tlLogic id="418977426" type="static" programID="1" offset="0">
        <phase duration="51" state="GGrrGG"/>
        <phase duration="4" state="yyrryy"/>
        <phase duration="11" state="rrGGrr"/>
        <phase duration="4" state="rryyrr"/>
    </tlLogic>
    <tlLogic id="891445989" type="static" programID="1" offset="0">
        <phase duration="31" state="GGrr"/>
        <phase duration="4" state="yyrr"/>
        <phase duration="31" state="rrGG"/>
        <phase duration="4" state="rryy"/>
    </tlLogic>
    <tlLogic id="303010204" type="static" programID="1" offset="0">
        <phase duration="51" state="rrrGGGGG"/>
        <phase duration="4" state="rrryyyyy"/>
        <phase duration="11" state="GGGrrrrr"/>
        <phase duration="4" state="yyyrrrrr"/>
    </tlLogic>
    <tlLogic id="418185587" type="static" programID="1" offset="0">
        <phase duration="51" state="GGGGrrrrGG"/>
        <phase duration="4" state="yyyyrrrryy"/>
        <phase duration="11" state="rrrrGGGGrr"/>
        <phase duration="4" state="rrrryyyyrr"/>
    </tlLogic>
    
    <tlLogic id="cluster_891445901_891445947" type="static" programID="1" offset="0">
        <phase duration="51" state="GGGGrrrrr"/>
        <phase duration="4" state="yyyyrrrrr"/>
        <phase duration="11" state="rrrrGGGGG"/>
        <phase duration="4" state="rrrryyyyy"/>
    </tlLogic>    
    <tlLogic id="294035840" type="static" programID="1" offset="-15">
        <phase duration="11" state="GGrrG"/>
        <phase duration="4" state="yyrry"/>
        <phase duration="51" state="rrGGG"/>
        <phase duration="4" state="rryyy"/>
    </tlLogic>    
    <tlLogic id="294035851" type="static" programID="1" offset="-15">
        <phase duration="11" state="Grr"/>
        <phase duration="4" state="yrr"/>
        <phase duration="51" state="rGG"/>
        <phase duration="4" state="ryy"/>
    </tlLogic>
    <tlLogic id="cluster_418376965_418976376" type="static" programID="1" offset="0">
        <phase duration="51" state="GGGGrr"/>
        <phase duration="4" state="yyyyrr"/>
        <phase duration="11" state="rrrrGG"/>
        <phase duration="4" state="rrrryy"/>
    </tlLogic>
<!--    <tlLogic id="cluster_418185723_427884105" type="static" programID="1" offset="0">
        <phase duration="41" state="GGGGrr"/>
        <phase duration="4" state="yyyyrr"/>
        <phase duration="21" state="rrrrGG"/>
        <phase duration="4" state="rrrryy"/>
     </tlLogic>-->
<!--    <tlLogic id="cluster_418178028_420521859" type="static" programID="1" offset="0">
        <phase duration="41" state="GGGGrr"/>
        <phase duration="4" state="yyyyrr"/>
        <phase duration="21" state="rrrrGG"/>
        <phase duration="4" state="rrrryy"/>
    </tlLogic>  --> 
<!--    <tlLogic id="cluster_250963364_418976387" type="static" programID="1" offset="0">
        <phase duration="51" state="GGGGGgrr"/>
        <phase duration="4"  state="yyyyygrr"/>
        <phase duration="6"  state="rrrrrGrr"/>
        <phase duration="4"  state="rrrrryrr"/>
        <phase duration="11" state="GrrrrrGG"/>
        <phase duration="4"  state="Grrrrryy"/>
    </tlLogic>-->
    <tlLogic id="418976374" type="static" programID="1" offset="-15">
        <phase duration="11" state="Grr"/>
        <phase duration="4" state="yrr"/>
        <phase duration="51" state="rGG"/>
        <phase duration="4" state="ryy"/>
    </tlLogic>
     
    
    <tlLogic id="418218748" type="static" programID="1" offset="0">
        <phase duration="41" state="GGGrrr"/>
        <phase duration="4" state="yyyrrr"/>
        <phase duration="21" state="GGrGGG"/>
        <phase duration="4" state="yyryyy"/>
    </tlLogic>
    <tlLogic id="1777568746" type="static" programID="1" offset="0">
        <phase duration="41" state="GGrrGG"/>
        <phase duration="4" state="yyrryy"/>
        <phase duration="21" state="rrGGrr"/>
        <phase duration="4" state="rryyrr"/>
    </tlLogic>
    
<!--    <tlLogic id="cluster_248606020_248742493" type="static" programID="1" offset="0">
        <phase duration="41" state="rrrGGGrrrGGG"/>
        <phase duration="4" state="rrryyyrrryyy"/>
        <phase duration="21" state="GGgrrrGGgGrr"/>
        <phase duration="4" state="yygrrryygyrr"/>
        <phase duration="6" state="rrGrrrrrGrrr"/>
        <phase duration="4" state="rryrrrrryrrr"/>
    </tlLogic>-->
<!--    <tlLogic id="248606019" type="static" programID="1" offset="0">
        <phase duration="21" state="GrrGGG"/>
        <phase duration="4" state="yrryyy"/>
        <phase duration="41" state="GGGrrr"/>
        <phase duration="4" state="yyyrrr"/>
    </tlLogic>-->
    
    <tlLogic id="395965326" type="static" programID="1" offset="0">
        <phase duration="41" state="GGrr"/>
        <phase duration="4" state="yyrr"/>
        <phase duration="21" state="rrGG"/>
        <phase duration="4" state="rryy"/>
    </tlLogic>    
    <tlLogic id="303010241" type="static" programID="1" offset="0">
        <phase duration="41" state="rrrGGG"/>
        <phase duration="4" state="rrryyy"/>
        <phase duration="21" state="GGGGrr"/>
        <phase duration="4" state="yyyyrr"/>
    </tlLogic>
    
    <!-- alameda -->
    <tlLogic id="331526235" type="static" programID="1" offset="0">
        <phase duration="41" state="GGGrr"/>
        <phase duration="4" state="yyyrr"/>
        <phase duration="21" state="GrrGG"/>
        <phase duration="4" state="yrryy"/>
    </tlLogic>
    <tlLogic id="303275910" type="static" programID="1" offset="0">
        <phase duration="41" state="GGrrrGG"/>
        <phase duration="4" state="yyrrryy"/>
        <phase duration="21" state="rrGGGrr"/>
        <phase duration="4" state="rryyyrr"/>
    </tlLogic>    
    <tlLogic id="419641406" type="static" programID="1" offset="-25">
        <phase duration="21" state="GGGrrG"/>
        <phase duration="4" state="yyyrry"/>
        <phase duration="41" state="rrrGGG"/>
        <phase duration="4" state="rrryyy"/>
    </tlLogic>
    <tlLogic id="419677113" type="static" programID="1" offset="0">
        <phase duration="41" state="GGGrr"/>
        <phase duration="4" state="yyyrr"/>
        <phase duration="21" state="GrrGG"/>
        <phase duration="4" state="yrryy"/>
    </tlLogic>
    <tlLogic id="10074" type="static" programID="1" offset="0">
        <phase duration="41" state="GGrrrGG"/>
        <phase duration="4" state="yyrrryy"/>
        <phase duration="21" state="rrGGGrr"/>
        <phase duration="4" state="rryyyrr"/>
    </tlLogic>    
    <tlLogic id="419680393" type="static" programID="1" offset="0">
        <phase duration="41" state="GGrr"/>
        <phase duration="4" state="yyrr"/>
        <phase duration="21" state="rrGG"/>
        <phase duration="4" state="rryy"/>
    </tlLogic>   
    <tlLogic id="419630409" type="static" programID="1" offset="0">
        <phase duration="41" state="rrGGGG"/>
        <phase duration="4" state="rryyyy"/>
        <phase duration="21" state="GGrrrr"/>
        <phase duration="4" state="yyrrrr"/>
    </tlLogic>    
    <tlLogic id="303278502" type="static" programID="1" offset="0">
        <phase duration="41" state="GGGrrr"/>
        <phase duration="4" state="yyyrrr"/>
        <phase duration="21" state="GrrGGG"/>
        <phase duration="4" state="yrryyy"/>
    </tlLogic>    
<!--    <tlLogic id="cluster_419660800_419665935" type="static" programID="1" offset="0">
        <phase duration="41" state="GGGrrrGG"/>
        <phase duration="4" state="yyyrrryy"/>
        <phase duration="21" state="GrrGGGrr"/>
        <phase duration="4" state="yrryyyrr"/>
    </tlLogic>-->
<!--    <tlLogic id="cluster_10027947_419664747" type="static" programID="1" offset="0">
        <phase duration="41" state="GGGGGrrr"/>
        <phase duration="4" state="yyyyyrrr"/>
        <phase duration="21" state="rrGrrGGG"/>
        <phase duration="4" state="rryrryyy"/>
    </tlLogic> -->   
    <tlLogic id="1628306455" type="static" programID="1" offset="0">
        <phase duration="42" state="GrrG"/>
        <phase duration="3" state="yrry"/>
        <phase duration="21" state="GGGr"/>
        <phase duration="3" state="yyyr"/>
    </tlLogic>    
        <tlLogic id="418376984" type="static" programID="1" offset="0">
        <phase duration="41" state="GGGrrrr"/>
        <phase duration="4" state="yyyrrrr"/>
        <phase duration="21" state="rrGGGGG"/>
        <phase duration="4" state="rryyyyy"/>
    </tlLogic>
    <tlLogic id="303278079" type="static" programID="1" offset="0">
        <phase duration="41" state="GGrrr"/>
        <phase duration="4" state="yyrrr"/>
        <phase duration="21" state="rrGGG"/>
        <phase duration="4" state="rryyy"/>
    </tlLogic>
</additional>