<?xml version="1.0" encoding="UTF-8"?>
<routes>

   <vType id="sedan" accel="0.9" decel="5.0" sigma="0.5" minGap="1.0" length="3.8" maxSpeed="50.0" speedDev="0.1" impatience="0.1" color="1,1,0" guiShape="passenger/sedan" />

    <routeDistribution id="001">
        <route edges="35836542#4 35836542#5 35836542#6 10023489 100105826 23051252#1 23051252#2 23051252#3 23051252#4 23051252#5 35901826 23162040 10070449#0 10070449#1 10070449#2 100152272 27131168#2 27131168#3 146544715 -35786768"/>
    </routeDistribution>
    <routeDistribution id="002">
        <route edges="35836542#4 35836542#5 35836542#6 10023489 100105826 23051252#1 23051252#2 23051252#3 23051252#4 23051252#5 35901826 23162040 10070449#0 35901640 -10027716 --21600 -10028184 10051733 72456721"/>
    </routeDistribution>
    <routeDistribution id="003">
        <route edges="35836542#4 61345099 35772520#1 35772520#2 35772520#3 36197574 -27594182 36197777 10051298 72446184#1 35836418 -75503605#0 23162032#0 23162032#1 23162032#2 23162032#3 23162032#4 23162032#5 35902750#0 35902750#1 23162033"/>
    </routeDistribution>
    <routeDistribution id="004">
        <route edges="35836542#4 35836542#5 35836542#6 10023489 166301881 -23042428 -35836578#2 -35836578#1 35782160#0 35782160#1 35835163#2"/>
    </routeDistribution>
    <routeDistribution id="005">
        <route edges="35836542#4 35836542#5 35836542#6 10023489 166301881 -23042428 -35836578#2 -35836578#1 -35836578#0"/>
    </routeDistribution>
    <routeDistribution id="006">
        <route edges="35836542#4 35836542#5 35836542#6 -35772696#1 -35772696#0 34435272#0 34435272#1 34435272#2 34435272#3 34435272#4"/>
    </routeDistribution>
    <routeDistribution id="007">
        <route edges="35836542#4 35836542#5 35836542#6 10023489 100105826 23051252#1 23051252#2 23051252#3 23051252#4 23051252#5 35901826 23162040 10070449#0 10070449#1 10070449#2 100152272 27131168#2 61279128 35903052#1 35903052#2 35903052#3 35923003#0 35923003#1 35923003#2 35923003#3"/>
    </routeDistribution>
    <routeDistribution id="011">
        <route edges="35900338 72455461#0 34474997#0 34474997#1 34474997#2 35902793#1 35902793#2 23162032#5 35902750#0 35902750#1 23162033"/>
    </routeDistribution>
    <routeDistribution id="012">
        <route edges="35900338 72456715 10028184 -21600 10027716 146546030#0 146546030#1 146546034 35901833#1 35901598#0 35901598#1 35901598#2 35901598#3 35901598#4 75503615 10084269 75503611#0 75503611#1 -75503608 75503612 10032034 100105876 35835163#0 35835163#1 35835163#2"/>
    </routeDistribution>
    <routeDistribution id="013">
        <route edges="35900338 72456715 10028184 -21600 10027716 146546030#0 146546030#1 146546034 35901833#1 35901598#0 35901598#1 35901598#2 35901598#3 35901598#4 -21598 100194609 166301879#0 166301880 -35836578#2 -35836578#1 -35836578#0"/>
    </routeDistribution>
    <routeDistribution id="014">
        <route edges="35900338 72456715 10028184 -21600 10027716 146546030#0 146546030#1 146546034 35901833#1 35901598#0 35901598#1 35901598#2 35901598#3 35901598#4 -21598 100194609 166301879#0 166301879#1 75503606 -100105822 -10023489 -35772696#1 -35772696#0 34435272#0 34435272#1 34435272#2 34435272#3 34435272#4"/>
    </routeDistribution>
    <routeDistribution id="016">
        <route edges="35900338 72455461#0 34474997#0 34474997#1 34474997#2 35902793#1 35902793#2 42431911#2 35902785#0 35902785#1 35902785#2 10023207 75503605#0 -35836418 35836413#0 35836413#1 27594178#1 35836542#1 35836542#2 35836542#3 35836542#4"/>
    </routeDistribution>
    <routeDistribution id="018">
        <route edges="35900338 72455461#0 72455461#1 72455461#2 10023209 -21602 100152272 27131168#2 61279128 35903052#1 35903052#2 27584067 10080012 27618005#0 27618005#1"/>
    </routeDistribution>
    <routeDistribution id="019">
        <route edges="35900338 72456715 10028184 -21600 10027716 146546030#0 146546030#1 146546034 35901833#1 35901598#0 35901598#1 35901598#2 35901598#3 35901598#4 -21598 100194609 166301879#0 166301879#1 75503606 -100105822 -10023489 -35772696#1 -35772696#0 34435272#0 34435272#1"/>
    </routeDistribution>
    <routeDistribution id="022">
        <route edges="35901888#1 30098184#1 30098184#2 23162032#2 23162032#3 23162032#4 23162032#5 35902750#0 35902750#1 23162033"/>
    </routeDistribution>
    <routeDistribution id="023">
        <route edges="35901888#1 35901888#2 10070475#1 72455461#4 146546030#1 146546034 35901833#1 35901598#0 35901598#1 35901598#2 35901598#3 35901598#4 75503615 10084269 75503611#0 75503611#1 -75503608 75503612 10032034 100105876 35835163#0 35835163#1 35835163#2"/>
    </routeDistribution>
    <routeDistribution id="024">
        <route edges="35901888#1 35901888#2 10070475#1 72455461#4 146546030#1 146546034 35901833#1 35901598#0 35901598#1 35901598#2 35901598#3 35901598#4 -21598 100194609 166301879#0 166301880 -35836578#2 -35836578#1 -35836578#0"/>
    </routeDistribution>
    <routeDistribution id="025">
        <route edges="35901888#1 35901888#2 10070475#1 72455461#4 146546030#1 146546034 35901833#1 35901598#0 35901598#1 35901598#2 35901598#3 35901598#4 -21598 100194609 166301879#0 166301879#1 75503606 -100105822 -10023489 -35772696#1 -35772696#0 34435272#0 34435272#1 34435272#2 34435272#3 34435272#4"/>
    </routeDistribution>
    <routeDistribution id="027">
        <route edges="35901888#1 30098184#1 35902033#1 35902033#2 34474997#2 35902793#1 35902793#2 42431911#2 35902785#0 35902785#1 35902785#2 10023207 75503605#0 -35836418 35836413#0 35836413#1 27594178#1 35836542#1 35836542#2 35836542#3 35836542#4"/>
    </routeDistribution>
    <routeDistribution id="029">
        <route edges="35901888#1 35901888#2 10070475#1 146196600 -21604 10070449#2 100152272 27131168#2 61279128 35903052#1 35903052#2 27584067 10080012 27618005#0 27618005#1"/>
    </routeDistribution>
    <routeDistribution id="030">
        <route edges="35901888#1 35901888#2 10070475#1 72455461#4 146546030#1 146546034 35901833#1 35901598#0 35901598#1 35901598#2 35901598#3 35901598#4 -21598 100194609 166301879#0 166301879#1 75503606 -100105822 -10023489 -35772696#1 -35772696#0 34435272#0 34435272#1"/>
    </routeDistribution>
    <routeDistribution id="031">
        <route edges="35836578#0 35836578#1 35836578#2 23042428 10023219 166301879#3 23051252#0 23051252#1 23051252#2 23051252#3 23051252#4 23051252#5 35901826 23162040 10070449#0 10070449#1 10070449#2 100152272 27131168#2 27131168#3 146544715 -35786768"/>
    </routeDistribution>
    <routeDistribution id="032">
        <route edges="35836578#0 35836578#1 35836578#2 23042428 10023219 166301879#3 23051252#0 23051252#1 23051252#2 23051252#3 23051252#4 23051252#5 35901826 23162040 10070449#0 35901640 -10027716 --21600 -10028184 10051733 72456721"/>
    </routeDistribution>
    <routeDistribution id="033">
        <route edges="35836578#0 35836578#1 35836578#2 23042428 10023219 166301879#3 166301879#4 -21596 75503615 10084269 75503604 23162032#0 23162032#1 23162032#2 23162032#3 23162032#4 23162032#5 35902750#0 35902750#1 23162033"/>
    </routeDistribution>
    <routeDistribution id="034">
        <route edges="35836578#0 35836578#1 35836578#2 23042428 -100105822 -10023489 -35772696#1 -35772696#0 34435272#0 34435272#1 34435272#2 34435272#3 34435272#4"/>
    </routeDistribution>
    <routeDistribution id="035">
        <route edges="35836578#0 35836578#1 35836578#2 23042428 10023219 166301879#3 23051252#0 23051252#1 23051252#2 23051252#3 23051252#4 23051252#5 35901826 23162040 10070449#0 10070449#1 10070449#2 100152272 27131168#2 61279128 35903052#1 35903052#2 35903052#3 35923003#0 35923003#1 35923003#2 35923003#3"/>
    </routeDistribution>
    <routeDistribution id="036">
        <route edges="35836578#0 35836578#1 35836578#2 23042428 10023219 166301879#3 166301879#4 -21596 75503615 10084269 75503604 75503605#0 -35836418 35836413#0 35836413#1 27594178#1 35836542#1 35836542#2 35836542#3 35836542#4"/>
    </routeDistribution>
    <routeDistribution id="037">
        <route edges="35836578#0 35836578#1 35836578#2 23042428 10023219 166301879#3 166301879#4 -21596 75503615 10084269 75503604 23162032#0 27617819 10070475#0 10070475#1"/>
    </routeDistribution>
    <routeDistribution id="038">
        <route edges="35836578#0 35836578#1 35836578#2 23042428 -100105822 -10023489 -35772696#1 -35772696#0 -27584441 10022935 34435254 35842748#0 35842748#1 151151441 27617970#1 27618005#0 27618005#1"/>
    </routeDistribution>
    <routeDistribution id="039">
        <route edges="35836578#0 35836578#1 35836578#2 23042428 -100105822 -10023489 -35772696#1 -35772696#0 34435272#0 34435272#1"/>
    </routeDistribution>
    <routeDistribution id="040">
        <route edges="27584109#0 27584109#1 10080012 27618005#0 27618005#1 27618005#2 113431926 35772671 35772696#1 10023489 100105826 23051252#1 23051252#2 23051252#3 23051252#4 23051252#5 35901826 23162040 10070449#0 10070449#1 10070449#2 100152272 27131168#2 27131168#3 146544715 -35786768"/>
    </routeDistribution>
    <routeDistribution id="041">
        <route edges="27584109#0 27584109#1 10080012 27618005#0 27618005#1 27618005#2 113431926 35772671 35772696#1 10023489 100105826 23051252#1 23051252#2 23051252#3 23051252#4 23051252#5 35901826 23162040 10070449#0 35901640 -10027716 --21600 -10028184 10051733 72456721"/>
    </routeDistribution>
    <routeDistribution id="042">
        <route edges="27584109#0 27584109#1 10080012 27618005#0 27618005#1 27618005#2 113431926 35772671 35772696#1 10023489 100105826 23051252#1 23051252#2 23051252#3 23051252#4 23051252#5 35901826 23162040 10070449#0 10070449#1 10070449#2 10070449#3 10070449#4 72456716 10051758 34474997#0 34474997#1 34474997#2 35902793#1 35902793#2 23162032#5 35902750#0 35902750#1 23162033"/>
    </routeDistribution>
    <routeDistribution id="043">
        <route edges="27584109#0 27584109#1 10080012 27618005#0 27618005#1 27618005#2 113431926 35772671 35772696#1 10023489 166301881 -23042428 -35836578#2 -35836578#1 35782160#0 35782160#1 35835163#2"/>
    </routeDistribution>
    <routeDistribution id="044">
        <route edges="27584109#0 27584109#1 10080012 27618005#0 27618005#1 27618005#2 113431926 35772671 35772696#1 10023489 166301881 -23042428 -35836578#2 -35836578#1 -35836578#0"/>
    </routeDistribution>
    <routeDistribution id="045">
        <route edges="27584109#0 27584109#1 10080012 27618005#0 27618005#1 27618005#2 10022935 34435254 36227055#0 36227055#1 34435272#2 34435272#3 34435272#4"/>
    </routeDistribution>
    <routeDistribution id="046">
        <route edges="27584109#0 27584109#1 10080012 27618005#0 27618005#1 27618005#2 113431926 35772671 35772792 35772520#0 35772520#1 35772577 35836542#4"/>
    </routeDistribution>
    <routeDistribution id="047">
        <route edges="27584109#0 27584109#1 10080012 27618005#0 27618005#1 27618005#2 113431926 35772671 35772792 35772520#0 35772520#1 35772520#2 35772520#3 36197574 -27594182 36197777 10051298 72446184#1 35836418 -75503605#0 23162032#0 27617819 10070475#0 10070475#1"/>
    </routeDistribution>
    <routeDistribution id="049">
        <route edges="27584109#0 27584109#1 10080012 27618005#0 27618005#1 27618005#2 113431926 35772671 35772792 35772520#0 35772520#1 35772577 35836542#4 35836542#5 35836542#6 -35772696#1 -35772696#0 34435272#0 34435272#1"/>
    </routeDistribution>
    <routeDistribution id="050">
        <route edges="-34435272#4 -34435272#3 -34435272#2 -34435272#1 -34435272#0 35772671 35772696#1 10023489 100105826 23051252#1 23051252#2 23051252#3 23051252#4 23051252#5 35901826 23162040 10070449#0 10070449#1 10070449#2 100152272 27131168#2 27131168#3 146544715 -35786768"/>
    </routeDistribution>
    <routeDistribution id="051">
        <route edges="-34435272#4 -34435272#3 -34435272#2 -34435272#1 -34435272#0 35772671 35772696#1 10023489 100105826 23051252#1 23051252#2 23051252#3 23051252#4 23051252#5 35901826 23162040 10070449#0 35901640 -10027716 --21600 -10028184 10051733 72456721"/>
    </routeDistribution>
    <routeDistribution id="052">
        <route edges="-34435272#4 -34435272#3 -34435272#2 -34435272#1 -34435272#0 35772671 35772696#1 10023489 100105826 23051252#1 23051252#2 23051252#3 23051252#4 23051252#5 35901826 23162040 10070449#0 10070449#1 10070449#2 10070449#3 10070449#4 72456716 10051758 34474997#0 34474997#1 34474997#2 35902793#1 35902793#2 23162032#5 35902750#0 35902750#1 23162033"/>
    </routeDistribution>
    <routeDistribution id="053">
        <route edges="-34435272#4 -34435272#3 -34435272#2 -34435272#1 -34435272#0 35772671 35772696#1 10023489 166301881 -23042428 -35836578#2 -35836578#1 35782160#0 35782160#1 35835163#2"/>
    </routeDistribution>
    <routeDistribution id="054">
        <route edges="-34435272#4 -34435272#3 -34435272#2 -34435272#1 -34435272#0 35772671 35772696#1 10023489 166301881 -23042428 -35836578#2 -35836578#1 -35836578#0"/>
    </routeDistribution>
    <routeDistribution id="055">
        <route edges="-34435272#4 -34435272#3 -34435272#2 -34435272#1 -34435272#0 35772671 35772696#1 10023489 100105826 23051252#1 23051252#2 23051252#3 23051252#4 23051252#5 35901826 23162040 10070449#0 10070449#1 10070449#2 100152272 27131168#2 61279128 35903052#1 35903052#2 35903052#3 35923003#0 35923003#1 35923003#2 35923003#3"/>
    </routeDistribution>
    <routeDistribution id="056">
        <route edges="-34435272#4 -34435272#3 -34435272#2 -34435272#1 -34435272#0 35772671 35772792 35772520#0 35772520#1 35772577 35836542#4"/>
    </routeDistribution>
    <routeDistribution id="057">
        <route edges="-34435272#4 -34435272#3 -34435272#2 -34435272#1 -34435272#0 35772671 35772792 35772520#0 35772520#1 35772520#2 35772520#3 36197574 -27594182 36197777 10051298 72446184#1 35836418 -75503605#0 23162032#0 27617819 10070475#0 10070475#1"/>
    </routeDistribution>
    <routeDistribution id="058">
        <route edges="-34435272#4 -34435272#3 -34435272#2 -34435272#1 -34435272#0 -27584441 10022935 34435254 35842748#0 35842748#1 151151441 27617970#1 27618005#0 27618005#1"/>
    </routeDistribution>
    <routeDistribution id="059">
        <route edges="100105828#0 100105828#1 100105828#2 100105828#3 -100105876 -10032034 -75503612 75503608 100105878#0 100105878#1 61494208 166301879#0 166301879#1 166301879#2 166301879#3 23051252#0 23051252#1 23051252#2 23051252#3 23051252#4 23051252#5 35901826 23162040 10070449#0 10070449#1 10070449#2 100152272 27131168#2 27131168#3 146544715 -35786768"/>
    </routeDistribution>
    <routeDistribution id="060">
        <route edges="100105828#0 100105828#1 100105828#2 100105828#3 -100105876 -10032034 -75503612 75503608 100105878#0 100105878#1 61494208 166301879#0 166301879#1 166301879#2 166301879#3 23051252#0 23051252#1 23051252#2 23051252#3 23051252#4 23051252#5 35901826 23162040 10070449#0 35901640 -10027716 --21600 -10028184 10051733 72456721"/>
    </routeDistribution>
    <routeDistribution id="061">
        <route edges="100105828#0 100105828#1 100105828#2 100105828#3 -100105876 -10032034 -75503612 75503608 100105878#0 100105874 75503604 23162032#0 23162032#1 23162032#2 23162032#3 23162032#4 23162032#5 35902750#0 35902750#1 23162033"/>
    </routeDistribution>
    <routeDistribution id="062">
        <route edges="100105828#0 100105828#1 100105828#2 100105828#3 -100105876 -10032034 -75503612 75503608 100105878#0 100105878#1 61494208 166301879#0 166301879#1 75503606 -100105822 -10023489 -35772696#1 -35772696#0 34435272#0 34435272#1 34435272#2 34435272#3 34435272#4"/>
    </routeDistribution>
    <routeDistribution id="063">
        <route edges="100105828#0 100105828#1 100105828#2 100105828#3 -100105876 -10032034 -75503612 75503608 100105878#0 100105878#1 61494208 166301879#0 166301879#1 166301879#2 166301879#3 23051252#0 23051252#1 23051252#2 23051252#3 23051252#4 23051252#5 35901826 23162040 10070449#0 10070449#1 10070449#2 100152272 27131168#2 61279128 35903052#1 35903052#2 35903052#3 35923003#0 35923003#1 35923003#2 35923003#3"/>
    </routeDistribution>
    <routeDistribution id="064">
        <route edges="100105828#0 100105828#1 100105828#2 100105828#3 -100105876 -10032034 -75503612 75503608 100105878#0 100105874 75503604 75503605#0 -35836418 35836413#0 35836413#1 27594178#1 35836542#1 35836542#2 35836542#3 35836542#4"/>
    </routeDistribution>
    <routeDistribution id="065">
        <route edges="100105828#0 100105828#1 100105828#2 100105828#3 -100105876 -10032034 -75503612 75503608 100105878#0 100105874 75503604 23162032#0 27617819 10070475#0 10070475#1"/>
    </routeDistribution>
    <routeDistribution id="066">
        <route edges="100105828#0 100105828#1 100105828#2 100105828#3 -100105876 -10032034 -75503612 75503608 100105878#0 100105878#1 61494208 166301879#0 166301879#1 75503606 -100105822 -10023489 -35772696#1 -35772696#0 -27584441 10022935 34435254 35842748#0 35842748#1 151151441 27617970#1 27618005#0 27618005#1"/>
    </routeDistribution>
    <routeDistribution id="067">
        <route edges="100105828#0 100105828#1 100105828#2 100105828#3 -100105876 -10032034 -75503612 75503608 100105878#0 100105878#1 61494208 166301879#0 166301879#1 75503606 -100105822 -10023489 -35772696#1 -35772696#0 34435272#0 34435272#1"/>
    </routeDistribution>
    <routeDistribution id="069">
        <route edges="27618005#1 27618005#2 113431926 35772671 35772696#1 10023489 100105826 23051252#1 23051252#2 23051252#3 23051252#4 23051252#5 35901826 23162040 10070449#0 10070449#1 10070449#2 100152272 27131168#2 27131168#3 146544715 -35786768"/>
    </routeDistribution>
    <routeDistribution id="070">
        <route edges="27618005#1 27618005#2 113431926 35772671 35772696#1 10023489 100105826 23051252#1 23051252#2 23051252#3 23051252#4 23051252#5 35901826 23162040 10070449#0 35901640 -10027716 --21600 -10028184 10051733 72456721"/>
    </routeDistribution>
    <routeDistribution id="071">
        <route edges="27618005#1 27618005#2 113431926 35772671 35772696#1 10023489 100105826 23051252#1 23051252#2 23051252#3 23051252#4 23051252#5 35901826 23162040 10070449#0 10070449#1 10070449#2 10070449#3 10070449#4 72456716 10051758 34474997#0 34474997#1 34474997#2 35902793#1 35902793#2 23162032#5 35902750#0 35902750#1 23162033"/>
    </routeDistribution>
    <routeDistribution id="072">
        <route edges="27618005#1 27618005#2 113431926 35772671 35772696#1 10023489 166301881 -23042428 -35836578#2 -35836578#1 35782160#0 35782160#1 35835163#2"/>
    </routeDistribution>
    <routeDistribution id="073">
        <route edges="27618005#1 27618005#2 113431926 35772671 35772696#1 10023489 166301881 -23042428 -35836578#2 -35836578#1 -35836578#0"/>
    </routeDistribution>
    <routeDistribution id="074">
        <route edges="27618005#1 27618005#2 10022935 34435254 36227055#0 36227055#1 34435272#2 34435272#3 34435272#4"/>
    </routeDistribution>
    <routeDistribution id="075">
        <route edges="27618005#1 27618005#2 113431926 35772671 35772696#1 10023489 100105826 23051252#1 23051252#2 23051252#3 23051252#4 23051252#5 35901826 23162040 10070449#0 10070449#1 10070449#2 100152272 27131168#2 61279128 35903052#1 35903052#2 35903052#3 35923003#0 35923003#1 35923003#2 35923003#3"/>
    </routeDistribution>
    <routeDistribution id="076">
        <route edges="27618005#1 27618005#2 113431926 35772671 35772792 35772520#0 35772520#1 35772577 35836542#4"/>
    </routeDistribution>
    <routeDistribution id="077">
        <route edges="27618005#1 27618005#2 113431926 35772671 35772792 35772520#0 35772520#1 35772520#2 35772520#3 36197574 -27594182 36197777 10051298 72446184#1 35836418 -75503605#0 23162032#0 27617819 10070475#0 10070475#1"/>
    </routeDistribution>
    <routeDistribution id="078">
        <route edges="27618005#1 27618005#2 113431926 35772671 35772792 35772520#0 35772520#1 35772577 35836542#4 35836542#5 35836542#6 -35772696#1 -35772696#0 34435272#0 34435272#1"/>
    </routeDistribution>
    <routeDistribution id="079">
        <route edges="23162031 42431911#0 42431911#1 42431911#2 35902785#0 35902785#1 35902785#2 10023207 75503605#0 35901826 23162040 10070449#0 10070449#1 10070449#2 100152272 27131168#2 27131168#3 146544715 -35786768"/>
    </routeDistribution>
    <routeDistribution id="080">
        <route edges="23162031 42431911#0 42431911#1 42431911#2 35902785#0 35902785#1 35902785#2 10023207 75503605#0 35901826 23162040 10070449#0 35901640 -10027716 --21600 -10028184 10051733 72456721"/>
    </routeDistribution>
    <routeDistribution id="081">
        <route edges="23162031 42431911#0 42431911#1 42431911#2 35902785#0 35902785#1 35902785#2 23051254#0 23051254#1 75503611#0 75503611#1 -75503608 75503612 10032034 100105876 35835163#0 35835163#1 35835163#2"/>
    </routeDistribution>
    <routeDistribution id="082">
        <route edges="23162031 42431911#0 42431911#1 42431911#2 35902785#0 35902785#1 35902785#2 10023207 75503605#0 35901598#0 35901598#1 35901598#2 35901598#3 35901598#4 -21598 100194609 166301879#0 166301880 -35836578#2 -35836578#1 -35836578#0"/>
    </routeDistribution>
    <routeDistribution id="083">
        <route edges="23162031 42431911#0 42431911#1 42431911#2 35902785#0 35902785#1 35902785#2 10023207 75503605#0 35901598#0 35901598#1 35901598#2 35901598#3 35901598#4 -21598 100194609 166301879#0 166301879#1 75503606 -100105822 -10023489 -35772696#1 -35772696#0 34435272#0 34435272#1 34435272#2 34435272#3 34435272#4"/>
    </routeDistribution>
    <routeDistribution id="084">
        <route edges="23162031 42431911#0 42431911#1 42431911#2 35902785#0 35902785#1 35902785#2 10023207 75503605#0 35901826 23162040 10070449#0 10070449#1 10070449#2 100152272 27131168#2 61279128 35903052#1 35903052#2 35903052#3 35923003#0 35923003#1 35923003#2 35923003#3"/>
    </routeDistribution>
    <routeDistribution id="085">
        <route edges="23162031 42431911#0 42431911#1 42431911#2 35902785#0 35902785#1 35902785#2 10023207 75503605#0 -35836418 35836413#0 35836413#1 27594178#1 35836542#1 35836542#2 35836542#3 35836542#4"/>
    </routeDistribution>
    <routeDistribution id="086">
        <route edges="23162031 42431911#0 42431911#1 42431911#2 35902785#0 35902785#1 35902785#2 10023207 75503605#0 35901826 23162040 10070449#0 10070449#1 10070449#2 10070449#3 10070449#4 72456716 10051758 72455461#1 72455461#2 30098184#0 35901888#2 10070475#1"/>
    </routeDistribution>
    <routeDistribution id="087">
        <route edges="23162031 42431911#0 42431911#1 42431911#2 35902785#0 35902785#1 35902785#2 10023207 75503605#0 35901826 23162040 10070449#0 10070449#1 10070449#2 100152272 27131168#2 61279128 35903052#1 35903052#2 27584067 10080012 27618005#0 27618005#1"/>
    </routeDistribution>
    <routeDistribution id="088">
        <route edges="23162031 42431911#0 42431911#1 42431911#2 35902785#0 35902785#1 35902785#2 10023207 75503605#0 35901598#0 35901598#1 35901598#2 35901598#3 35901598#4 -21598 100194609 166301879#0 166301879#1 75503606 -100105822 -10023489 -35772696#1 -35772696#0 34435272#0 34435272#1"/>
    </routeDistribution>
    <routeDistribution id="089">
        <route edges="35786768 -146544715 35903338 10070449#4 72456716 10051758 34474997#0 34474997#1 34474997#2 35902793#1 35902793#2 23162032#5 35902750#0 35902750#1 23162033"/>
    </routeDistribution>
    <routeDistribution id="090">
        <route edges="35786768 -146544715 35903338 10070449#4 72456716 10051758 72455461#1 72455461#2 72455461#3 72455461#4 146546030#1 146546034 35901833#1 35901598#0 35901598#1 35901598#2 35901598#3 35901598#4 75503615 10084269 75503611#0 75503611#1 -75503608 75503612 10032034 100105876 35835163#0 35835163#1 35835163#2"/>
    </routeDistribution>
    <routeDistribution id="091">
        <route edges="35786768 -146544715 35903338 10070449#4 72456716 10051758 72455461#1 72455461#2 72455461#3 72455461#4 146546030#1 146546034 35901833#1 35901598#0 35901598#1 35901598#2 35901598#3 35901598#4 -21598 100194609 166301879#0 166301880 -35836578#2 -35836578#1 -35836578#0"/>
    </routeDistribution>
    <routeDistribution id="092">
        <route edges="35786768 35903681 35903052#1 35903052#2 27584067 10080012 27618005#0 27618005#1 27618005#2 10022935 34435254 36227055#0 36227055#1 34435272#2 34435272#3 34435272#4"/>
    </routeDistribution>
    <routeDistribution id="094">
        <route edges="35786768 -146544715 35903338 10070449#4 72456716 10051758 34474997#0 34474997#1 34474997#2 35902793#1 35902793#2 42431911#2 35902785#0 35902785#1 35902785#2 10023207 75503605#0 -35836418 35836413#0 35836413#1 27594178#1 35836542#1 35836542#2 35836542#3 35836542#4"/>
    </routeDistribution>
    <routeDistribution id="096">
        <route edges="35786768 35903681 35903052#1 35903052#2 27584067 10080012 27618005#0 27618005#1"/>
    </routeDistribution>
    <routeDistribution id="097">
        <route edges="35786768 -146544715 35903338 10070449#4 72456716 10051758 72455461#1 72455461#2 72455461#3 72455461#4 146546030#1 146546034 35901833#1 35901598#0 35901598#1 35901598#2 35901598#3 35901598#4 -21598 100194609 166301879#0 166301879#1 75503606 -100105822 -10023489 -35772696#1 -35772696#0 34435272#0 34435272#1"/>
    </routeDistribution>
    <routeDistribution id="099">
        <route edges="23162043 10023217 -35900161 34474997#1 34474997#2 35902793#1 35902793#2 23162032#5 35902750#0 35902750#1 23162033"/>
    </routeDistribution>
    <routeDistribution id="100">
        <route edges="23162043 10023217 -35900161 35901888#0 35773427#2 72455461#2 72455461#3 72455461#4 146546030#1 146546034 35901833#1 35901598#0 35901598#1 35901598#2 35901598#3 35901598#4 75503615 10084269 75503611#0 75503611#1 -75503608 75503612 10032034 100105876 35835163#0 35835163#1 35835163#2"/>
    </routeDistribution>
    <routeDistribution id="101">
        <route edges="23162043 10023217 -35900161 35901888#0 35773427#2 72455461#2 72455461#3 72455461#4 146546030#1 146546034 35901833#1 35901598#0 35901598#1 35901598#2 35901598#3 35901598#4 -21598 100194609 166301879#0 166301880 -35836578#2 -35836578#1 -35836578#0"/>
    </routeDistribution>
    <routeDistribution id="102">
        <route edges="23162043 35899968 35903646 35903681 35903052#1 35903052#2 27584067 10080012 27618005#0 27618005#1 27618005#2 10022935 34435254 36227055#0 36227055#1 34435272#2 34435272#3 34435272#4"/>
    </routeDistribution>
    <routeDistribution id="104">
        <route edges="23162043 10023217 -35900161 34474997#1 34474997#2 35902793#1 35902793#2 42431911#2 35902785#0 35902785#1 35902785#2 10023207 75503605#0 -35836418 35836413#0 35836413#1 27594178#1 35836542#1 35836542#2 35836542#3 35836542#4"/>
    </routeDistribution>
    <routeDistribution id="106">
        <route edges="23162043 35899968 35903646 35903681 35903052#1 35903052#2 27584067 10080012 27618005#0 27618005#1"/>
    </routeDistribution>
    <routeDistribution id="107">
        <route edges="23162043 10023217 -35900161 35901888#0 35773427#2 72455461#2 72455461#3 72455461#4 146546030#1 146546034 35901833#1 35901598#0 35901598#1 35901598#2 35901598#3 35901598#4 -21598 100194609 166301879#0 166301879#1 75503606 -100105822 -10023489 -35772696#1 -35772696#0 34435272#0 34435272#1"/>
    </routeDistribution>

    <flow id="001" type="sedan" begin="0.0" route="001" number="1" end="4200" departSpeed="max" departLane="best" />
    <flow id="002" type="sedan" begin="0.0" route="002" number="1" end="4200" departSpeed="max" departLane="best" />
    <flow id="003" type="sedan" begin="0.0" route="003" number="127" end="4200" departSpeed="max" departLane="best" />
    <flow id="004" type="sedan" begin="0.0" route="004" number="1" end="4200" departSpeed="max" departLane="best" />
    <flow id="005" type="sedan" begin="0.0" route="005" number="71" end="4200" departSpeed="max" departLane="best" />
    <flow id="006" type="sedan" begin="0.0" route="006" number="1" end="4200" departSpeed="max" departLane="best" />
    <flow id="007" type="sedan" begin="0.0" route="007" number="1" end="4200" departSpeed="max" departLane="best" />
    <flow id="011" type="sedan" begin="0.0" route="011" number="55" end="4200" departSpeed="max" departLane="best" />
    <flow id="012" type="sedan" begin="0.0" route="012" number="28" end="4200" departSpeed="max" departLane="best" />
    <flow id="013" type="sedan" begin="0.0" route="013" number="34" end="4200" departSpeed="max" departLane="best" />
    <flow id="014" type="sedan" begin="0.0" route="014" number="1" end="4200" departSpeed="max" departLane="best" />
    <flow id="016" type="sedan" begin="0.0" route="016" number="67" end="4200" departSpeed="max" departLane="best" />
    <flow id="018" type="sedan" begin="0.0" route="018" number="1" end="4200" departSpeed="max" departLane="best" />
    <flow id="019" type="sedan" begin="0.0" route="019" number="22" end="4200" departSpeed="max" departLane="best" />
    <flow id="022" type="sedan" begin="0.0" route="022" number="194" end="4200" departSpeed="max" departLane="best" />
    <flow id="023" type="sedan" begin="0.0" route="023" number="1" end="4200" departSpeed="max" departLane="best" />
    <flow id="024" type="sedan" begin="0.0" route="024" number="192" end="4200" departSpeed="max" departLane="best" />
    <flow id="025" type="sedan" begin="0.0" route="025" number="1" end="4200" departSpeed="max" departLane="best" />
    <flow id="027" type="sedan" begin="0.0" route="027" number="1" end="4200" departSpeed="max" departLane="best" />
    <flow id="029" type="sedan" begin="0.0" route="029" number="23" end="4200" departSpeed="max" departLane="best" />
    <flow id="030" type="sedan" begin="0.0" route="030" number="30" end="4200" departSpeed="max" departLane="best" />
    <flow id="031" type="sedan" begin="0.0" route="031" number="1" end="4200" departSpeed="max" departLane="best" />
    <flow id="032" type="sedan" begin="0.0" route="032" number="67" end="4200" departSpeed="max" departLane="best" />
    <flow id="033" type="sedan" begin="0.0" route="033" number="143" end="4200" departSpeed="max" departLane="best" />